-------------------------------------------------------
          Amber 16 SANDER                              2016
          -------------------------------------------------------

  [-O]verwriting output

File Assignments:

 Here is the input file:

constant temperature
&cntrl
ntxo=1,
imin = 0, nstlim = 4000, irest = 1, ntx = 5, dt = 0.002,
ntt = 1, temp0 = 300.0, tautp = 1.0,
ntb = 1,
ntc = 2, ntf = 2,
ioutfm = 1, iwrap = 1,
ntwe = 800, ntwx = 800, ntpr = 400,
ntr = 1, restraint_wt = 10.00,
restraintmask="!:CYC",
/

--------------------------------------------------------------------------------
   1.  RESOURCE   USE:
--------------------------------------------------------------------------------

 getting new box info from bottom of inpcrd

 NATOM  =    3592 NTYPES =       6 NBONH =    2390 MBONA  =    1203
 NTHETH =    5974 MTHETA =    1208 NPHIH =    9572 MPHIA  =    3604
 NHPARM =       0 NPARM  =       0 NNB   =   21153 NRES   =     199
 NBONA  =    1203 NTHETA =    1208 NPHIA =    3604 NUMBND =       7
 NUMANG =      11 NPTRA  =      12 NATYP =       6 NPHB   =       0
 IFBOX  =       1 NMXRS  =      28 IFCAP =       0 NEXTRA =       0
 NCOPY  =       0

     BOX TYPE: RECTILINEAR

--------------------------------------------------------------------------------
   2.  CONTROL  DATA  FOR  THE  RUN
--------------------------------------------------------------------------------

LIG

General flags:
     imin    =       0, nmropt  =       0

Nature and format of input:
     ntx     =       5, irest   =       1, ntrx    =       1

Nature and format of output:
     ntxo    =       1, ntpr    =     400, ntrx    =       1, ntwr    =    4000
     iwrap   =       1, ntwx    =     800, ntwv    =       0, ntwe    =     800
     ioutfm  =       1, ntwprt  =       0, idecomp =       0, rbornstat=      0

Potential function:
     ntf     =       2, ntb     =       1, igb     =       0, nsnb    =      25
     ipol    =       0, gbsa    =       0, iesp    =       0
     dielc   =   1.00000, cut     =   8.00000, intdiel =   1.00000

Frozen or restrained atoms:
     ibelly  =       0, ntr     =       1
     restraint_wt =  10.00000

Molecular dynamics:
     nstlim  =      4000, nscm    =         0, nrespa  =         1
     t       =   0.00000, dt      =   0.00200, vlimit  =  20.00000

Berendsen (weak-coupling) temperature regulation:
     temp0   = 300.00000, tempi   =   0.00000, tautp   =   1.00000

SHAKE:
     ntc     =       2, jfastw  =       0
     tol     =   0.00001

Ewald parameters:
     verbose =       0, ew_type =       0, nbflag  =       1, use_pme =       1
     vdwmeth =       1, eedmeth =       1, netfrc  =       1
     Box X =   54.510   Box Y =   36.369   Box Z =   38.420
     Alpha =   90.000   Beta  =   90.000   Gamma =   90.000
     NFFT1 =   54       NFFT2 =   36       NFFT3 =   40
     Cutoff=    8.000   Tol   =0.100E-04
     Ewald Coefficient =  0.34864
     Interpolation order =    4

    LOADING THE CONSTRAINED ATOMS AS GROUPS

   5.  REFERENCE ATOM COORDINATES

  LIG
     Mask !:CYC; matches    28 atoms

--------------------------------------------------------------------------------
   3.  ATOMIC COORDINATES AND VELOCITIES
--------------------------------------------------------------------------------

LIG
 begin time read from input coords =     2.000 ps

 Number of triangulated 3-point waters found:        0

     Sum of charges from parm topology file =  -0.00200000
     Forcing neutrality...

--------------------------------------------------------------------------------
   4.  RESULTS
 NSTEP =      400   TIME(PS) =       2.800  TEMP(K) =   212.29  PRESS =     0.0
 Etot   =      2881.6852  EKtot   =      1768.8785  EPtot      =      1112.8067
 BOND   =        94.5952  ANGLE   =       352.9408  DIHED      =       672.6391
 1-4 NB =       505.7928  1-4 EEL =      -152.5042  VDWAALS    =      -640.7322
 EELEC  =       276.0124  EHBOND  =         0.0000  RESTRAINT  =         4.0630
 EAMBER (non-restraint)  =      1108.7437
 Ewald error estimate:   0.2464E-03
 ------------------------------------------------------------------------------

      A V E R A G E S   O V E R    4000 S T E P S

 NSTEP =     4000   TIME(PS) =      10.000  TEMP(K) =   263.73  PRESS =     0.0
 Etot   =      3860.6098  EKtot   =      2197.4569  EPtot      =      1663.1529
 BOND   =       183.8272  ANGLE   =       732.1286  DIHED      =       737.1240
 1-4 NB =       541.4822  1-4 EEL =      -151.3928  VDWAALS    =      -661.8526
 EELEC  =       275.3269  EHBOND  =         0.0000  RESTRAINT  =         6.5094
 EAMBER (non-restraint)  =      1656.6435
 Ewald error estimate:   0.1341E-03
 ------------------------------------------------------------------------------

      R M S  F L U C T U A T I O N S

 NSTEP =     4000   TIME(PS) =      10.000  TEMP(K) =    31.28  PRESS =     0.0
 Etot   =       607.7507  EKtot   =       260.6254  EPtot      =       355.8197
 BOND   =        61.7033  ANGLE   =       247.5431  DIHED      =        35.0558
 1-4 NB =        19.5051  1-4 EEL =         1.3581  VDWAALS    =        12.2749
 EELEC  =         0.7149  EHBOND  =         0.0000  RESTRAINT  =         2.0530
 EAMBER (non-restraint)  =       353.7667
 Ewald error estimate:   0.8436E-04
 ------------------------------------------------------------------------------
