-------------------------------------------------------
          Amber 16 SANDER                              2016
          -------------------------------------------------------

  [-O]verwriting output

File Assignments:

 Here is the input file:

md with sander
&cntrl
ntxo=1,
imin = 0, nstlim = 15000, irest = 1, ntx = 5, dt = 0.002,
ntt = 1, temp0 = 298.0, tautp = 1.0,
ntp = 1, pres0 = 1.0, taup = 0.5,
ntb = 2,
ntc = 2, ntf = 2,
ioutfm = 1, iwrap = 1,
ntwe = 3000, ntwx = 3000, ntpr = 1500,
ntr = 1, restraint_wt = 10.00,
restraintmask="!:CYC",
/

--------------------------------------------------------------------------------
   1.  RESOURCE   USE:
--------------------------------------------------------------------------------

 getting new box info from bottom of inpcrd

 NATOM  =    3592 NTYPES =       6 NBONH =    2390 MBONA  =    1203
 NTHETH =    5974 MTHETA =    1208 NPHIH =    9572 MPHIA  =    3604
 NHPARM =       0 NPARM  =       0 NNB   =   21153 NRES   =     199
 NBONA  =    1203 NTHETA =    1208 NPHIA =    3604 NUMBND =       7
 NUMANG =      11 NPTRA  =      12 NATYP =       6 NPHB   =       0
 IFBOX  =       1 NMXRS  =      28 IFCAP =       0 NEXTRA =       0
 NCOPY  =       0

     BOX TYPE: RECTILINEAR

--------------------------------------------------------------------------------
   2.  CONTROL  DATA  FOR  THE  RUN
--------------------------------------------------------------------------------

LIG

General flags:
     imin    =       0, nmropt  =       0

Nature and format of input:
     ntx     =       5, irest   =       1, ntrx    =       1

Nature and format of output:
     ntxo    =       1, ntpr    =    1500, ntrx    =       1, ntwr    =   15000
     iwrap   =       1, ntwx    =    3000, ntwv    =       0, ntwe    =    3000
     ioutfm  =       1, ntwprt  =       0, idecomp =       0, rbornstat=      0

Potential function:
     ntf     =       2, ntb     =       2, igb     =       0, nsnb    =      25
     ipol    =       0, gbsa    =       0, iesp    =       0
     dielc   =   1.00000, cut     =   8.00000, intdiel =   1.00000

Frozen or restrained atoms:
     ibelly  =       0, ntr     =       1
     restraint_wt =  10.00000

Molecular dynamics:
     nstlim  =     15000, nscm    =         0, nrespa  =         1
     t       =   0.00000, dt      =   0.00200, vlimit  =  20.00000

Berendsen (weak-coupling) temperature regulation:
     temp0   = 298.00000, tempi   =   0.00000, tautp   =   1.00000

Pressure regulation:
     ntp     =       1
     pres0   =   1.00000, comp    =  44.60000, taup    =   0.50000

SHAKE:
     ntc     =       2, jfastw  =       0
     tol     =   0.00001

Ewald parameters:
     verbose =       0, ew_type =       0, nbflag  =       1, use_pme =       1
     vdwmeth =       1, eedmeth =       1, netfrc  =       1
     Box X =   54.510   Box Y =   36.369   Box Z =   38.420
     Alpha =   90.000   Beta  =   90.000   Gamma =   90.000
     NFFT1 =   54       NFFT2 =   36       NFFT3 =   40
     Cutoff=    8.000   Tol   =0.100E-04
     Ewald Coefficient =  0.34864
     Interpolation order =    4

    LOADING THE CONSTRAINED ATOMS AS GROUPS

   5.  REFERENCE ATOM COORDINATES

  LIG
     Mask !:CYC; matches    28 atoms

--------------------------------------------------------------------------------
   3.  ATOMIC COORDINATES AND VELOCITIES
--------------------------------------------------------------------------------

LIG
 begin time read from input coords =    10.000 ps

 Number of triangulated 3-point waters found:        0

     Sum of charges from parm topology file =  -0.00200000
     Forcing neutrality...

--------------------------------------------------------------------------------
   4.  RESULTS
 NSTEP =     1500   TIME(PS) =      13.000  TEMP(K) =   292.16  PRESS =   297.4
 Etot   =      4704.6385  EKtot   =      2434.3653  EPtot      =      2270.2732
 BOND   =       281.7620  ANGLE   =      1200.6747  DIHED      =       756.5606
 1-4 NB =       570.5957  1-4 EEL =      -152.0050  VDWAALS    =      -670.4813
 EELEC  =       275.3450  EHBOND  =         0.0000  RESTRAINT  =         7.8215
 EAMBER (non-restraint)  =      2262.4517
 EKCMT  =       390.3712  VIRIAL  =      -121.3534  VOLUME     =     79683.5878
                                                    Density    =         0.3513
 Ewald error estimate:   0.4761E-04
 ------------------------------------------------------------------------------

      A V E R A G E S   O V E R   15000 S T E P S

 NSTEP =    15000   TIME(PS) =      40.000  TEMP(K) =   296.16  PRESS =   -31.7
 Etot   =      4896.4917  EKtot   =      2467.6656  EPtot      =      2428.8261
 BOND   =       337.4257  ANGLE   =      1417.6464  DIHED      =       733.1155
 1-4 NB =       556.9941  1-4 EEL =      -151.5650  VDWAALS    =      -748.9880
 EELEC  =       275.8885  EHBOND  =         0.0000  RESTRAINT  =         8.3088
 EAMBER (non-restraint)  =      2420.5173
 EKCMT  =       300.2944  VIRIAL  =       350.0666  VOLUME     =     78610.1292
                                                    Density    =         0.3568
 Ewald error estimate:   0.2096E-03
 ------------------------------------------------------------------------------

      R M S  F L U C T U A T I O N S

 NSTEP =    15000   TIME(PS) =      40.000  TEMP(K) =     3.78  PRESS =   132.0
 Etot   =       113.4060  EKtot   =        31.4908  EPtot      =        99.0779
 BOND   =        32.2381  ANGLE   =       129.4797  DIHED      =        13.7175
 1-4 NB =         8.7848  1-4 EEL =         1.2681  VDWAALS    =        70.1996
 EELEC  =         0.7566  EHBOND  =         0.0000  RESTRAINT  =         1.8706
 EAMBER (non-restraint)  =        97.2074
 EKCMT  =        62.8012  VIRIAL  =       180.5605  VOLUME     =      3421.7720
                                                    Density    =         0.0163
 Ewald error estimate:   0.1053E-03
 ------------------------------------------------------------------------------
