-------------------------------------------------------
          Amber 16 SANDER                              2016
          -------------------------------------------------------

  [-O]verwriting output

File Assignments:

 Here is the input file:

constant temperature
&cntrl
ntxo=1,
imin = 0, nstlim = 4000, irest = 1, ntx = 5, dt = 0.002,
ntt = 1, temp0 = 300.0, tautp = 1.0,
ntb = 1,
ntc = 2, ntf = 2,
ioutfm = 1, iwrap = 1,
ntwe = 800, ntwx = 800, ntpr = 400,
ntr = 1, restraint_wt = 10.00,
restraintmask="!:CYC",
/

--------------------------------------------------------------------------------
   1.  RESOURCE   USE:
--------------------------------------------------------------------------------

 getting new box info from bottom of inpcrd

 NATOM  =    5266 NTYPES =       6 NBONH =    3504 MBONA  =    1763
 NTHETH =    8760 MTHETA =    1770 NPHIH =   14035 MPHIA  =    5285
 NHPARM =       0 NPARM  =       0 NNB   =   31010 NRES   =     292
 NBONA  =    1763 NTHETA =    1770 NPHIA =    5285 NUMBND =       7
 NUMANG =      11 NPTRA  =      12 NATYP =       6 NPHB   =       0
 IFBOX  =       1 NMXRS  =      28 IFCAP =       0 NEXTRA =       0
 NCOPY  =       0

     BOX TYPE: RECTILINEAR

--------------------------------------------------------------------------------
   2.  CONTROL  DATA  FOR  THE  RUN
--------------------------------------------------------------------------------

LIG

General flags:
     imin    =       0, nmropt  =       0

Nature and format of input:
     ntx     =       5, irest   =       1, ntrx    =       1

Nature and format of output:
     ntxo    =       1, ntpr    =     400, ntrx    =       1, ntwr    =    4000
     iwrap   =       1, ntwx    =     800, ntwv    =       0, ntwe    =     800
     ioutfm  =       1, ntwprt  =       0, idecomp =       0, rbornstat=      0

Potential function:
     ntf     =       2, ntb     =       1, igb     =       0, nsnb    =      25
     ipol    =       0, gbsa    =       0, iesp    =       0
     dielc   =   1.00000, cut     =   8.00000, intdiel =   1.00000

Frozen or restrained atoms:
     ibelly  =       0, ntr     =       1
     restraint_wt =  10.00000

Molecular dynamics:
     nstlim  =      4000, nscm    =         0, nrespa  =         1
     t       =   0.00000, dt      =   0.00200, vlimit  =  20.00000

Berendsen (weak-coupling) temperature regulation:
     temp0   = 300.00000, tempi   =   0.00000, tautp   =   1.00000

SHAKE:
     ntc     =       2, jfastw  =       0
     tol     =   0.00001

Ewald parameters:
     verbose =       0, ew_type =       0, nbflag  =       1, use_pme =       1
     vdwmeth =       1, eedmeth =       1, netfrc  =       1
     Box X =   40.882   Box Y =   50.917   Box Z =   53.789
     Alpha =   90.000   Beta  =   90.000   Gamma =   90.000
     NFFT1 =   40       NFFT2 =   50       NFFT3 =   54
     Cutoff=    8.000   Tol   =0.100E-04
     Ewald Coefficient =  0.34864
     Interpolation order =    4

    LOADING THE CONSTRAINED ATOMS AS GROUPS

   5.  REFERENCE ATOM COORDINATES

  LIG
     Mask !:CYC; matches    28 atoms

--------------------------------------------------------------------------------
   3.  ATOMIC COORDINATES AND VELOCITIES
--------------------------------------------------------------------------------

LIG
 begin time read from input coords =     2.000 ps

 Number of triangulated 3-point waters found:        0

     Sum of charges from parm topology file =   0.00200000
     Forcing neutrality...

--------------------------------------------------------------------------------
   4.  RESULTS
 NSTEP =      400   TIME(PS) =       2.800  TEMP(K) =   213.21  PRESS =     0.0
 Etot   =      4185.4039  EKtot   =      2604.3637  EPtot      =      1581.0402
 BOND   =       132.6776  ANGLE   =       516.2854  DIHED      =       994.5645
 1-4 NB =       741.5243  1-4 EEL =      -233.5471  VDWAALS    =      -979.8232
 EELEC  =       407.3277  EHBOND  =         0.0000  RESTRAINT  =         2.0310
 EAMBER (non-restraint)  =      1579.0092
 Ewald error estimate:   0.7673E-04
 ------------------------------------------------------------------------------

      A V E R A G E S   O V E R    4000 S T E P S

 NSTEP =     4000   TIME(PS) =      10.000  TEMP(K) =   262.52  PRESS =     0.0
 Etot   =      5670.9995  EKtot   =      3206.7948  EPtot      =      2464.2047
 BOND   =       276.8099  ANGLE   =      1101.8863  DIHED      =      1098.0575
 1-4 NB =       796.1259  1-4 EEL =      -230.4760  VDWAALS    =      -987.3916
 EELEC  =       405.4716  EHBOND  =         0.0000  RESTRAINT  =         3.7211
 EAMBER (non-restraint)  =      2460.4836
 Ewald error estimate:   0.1376E-03
 ------------------------------------------------------------------------------

      R M S  F L U C T U A T I O N S

 NSTEP =     4000   TIME(PS) =      10.000  TEMP(K) =    30.83  PRESS =     0.0
 Etot   =       929.2691  EKtot   =       376.6111  EPtot      =       566.1834
 BOND   =        94.9778  ANGLE   =       387.5194  DIHED      =        59.7374
 1-4 NB =        31.9172  1-4 EEL =         2.1977  VDWAALS    =        18.6284
 EELEC  =         1.2289  EHBOND  =         0.0000  RESTRAINT  =         1.5973
 EAMBER (non-restraint)  =       564.5861
 Ewald error estimate:   0.7688E-04
 ------------------------------------------------------------------------------
