-------------------------------------------------------
          Amber 16 SANDER                              2016
          -------------------------------------------------------

  [-O]verwriting output

File Assignments:

 Here is the input file:

md with sander
&cntrl
ntxo=1,
imin = 0, nstlim = 15000, irest = 1, ntx = 5, dt = 0.002,
ntt = 1, temp0 = 298.0, tautp = 1.0,
ntp = 1, pres0 = 1.0, taup = 0.5,
ntb = 2,
ntc = 2, ntf = 2,
ioutfm = 1, iwrap = 1,
ntwe = 3000, ntwx = 3000, ntpr = 1500,
ntr = 1, restraint_wt = 10.00,
restraintmask="!:CYC",
/

--------------------------------------------------------------------------------
   1.  RESOURCE   USE:
--------------------------------------------------------------------------------

 getting new box info from bottom of inpcrd

 NATOM  =    5266 NTYPES =       6 NBONH =    3504 MBONA  =    1763
 NTHETH =    8760 MTHETA =    1770 NPHIH =   14035 MPHIA  =    5285
 NHPARM =       0 NPARM  =       0 NNB   =   31010 NRES   =     292
 NBONA  =    1763 NTHETA =    1770 NPHIA =    5285 NUMBND =       7
 NUMANG =      11 NPTRA  =      12 NATYP =       6 NPHB   =       0
 IFBOX  =       1 NMXRS  =      28 IFCAP =       0 NEXTRA =       0
 NCOPY  =       0

     BOX TYPE: RECTILINEAR

--------------------------------------------------------------------------------
   2.  CONTROL  DATA  FOR  THE  RUN
--------------------------------------------------------------------------------

LIG

General flags:
     imin    =       0, nmropt  =       0

Nature and format of input:
     ntx     =       5, irest   =       1, ntrx    =       1

Nature and format of output:
     ntxo    =       1, ntpr    =    1500, ntrx    =       1, ntwr    =   15000
     iwrap   =       1, ntwx    =    3000, ntwv    =       0, ntwe    =    3000
     ioutfm  =       1, ntwprt  =       0, idecomp =       0, rbornstat=      0

Potential function:
     ntf     =       2, ntb     =       2, igb     =       0, nsnb    =      25
     ipol    =       0, gbsa    =       0, iesp    =       0
     dielc   =   1.00000, cut     =   8.00000, intdiel =   1.00000

Frozen or restrained atoms:
     ibelly  =       0, ntr     =       1
     restraint_wt =  10.00000

Molecular dynamics:
     nstlim  =     15000, nscm    =         0, nrespa  =         1
     t       =   0.00000, dt      =   0.00200, vlimit  =  20.00000

Berendsen (weak-coupling) temperature regulation:
     temp0   = 298.00000, tempi   =   0.00000, tautp   =   1.00000

Pressure regulation:
     ntp     =       1
     pres0   =   1.00000, comp    =  44.60000, taup    =   0.50000

SHAKE:
     ntc     =       2, jfastw  =       0
     tol     =   0.00001

Ewald parameters:
     verbose =       0, ew_type =       0, nbflag  =       1, use_pme =       1
     vdwmeth =       1, eedmeth =       1, netfrc  =       1
     Box X =   40.882   Box Y =   50.917   Box Z =   53.789
     Alpha =   90.000   Beta  =   90.000   Gamma =   90.000
     NFFT1 =   40       NFFT2 =   50       NFFT3 =   54
     Cutoff=    8.000   Tol   =0.100E-04
     Ewald Coefficient =  0.34864
     Interpolation order =    4

    LOADING THE CONSTRAINED ATOMS AS GROUPS

   5.  REFERENCE ATOM COORDINATES

  LIG
     Mask !:CYC; matches    28 atoms

--------------------------------------------------------------------------------
   3.  ATOMIC COORDINATES AND VELOCITIES
--------------------------------------------------------------------------------

LIG
 begin time read from input coords =    10.000 ps

 Number of triangulated 3-point waters found:        0

     Sum of charges from parm topology file =   0.00200000
     Forcing neutrality...

--------------------------------------------------------------------------------
   4.  RESULTS
 NSTEP =     1500   TIME(PS) =      13.000  TEMP(K) =   292.40  PRESS =    62.0
 Etot   =      6950.2485  EKtot   =      3571.7895  EPtot      =      3378.4590
 BOND   =       436.2890  ANGLE   =      1826.9449  DIHED      =      1109.2066
 1-4 NB =       828.7759  1-4 EEL =      -230.4439  VDWAALS    =     -1004.2508
 EELEC  =       406.2518  EHBOND  =         0.0000  RESTRAINT  =         5.6854
 EAMBER (non-restraint)  =      3372.7736
 EKCMT  =       564.1937  VIRIAL  =       408.8776  VOLUME     =    116051.6118
                                                    Density    =         0.3537
 Ewald error estimate:   0.1802E-03
 ------------------------------------------------------------------------------

      A V E R A G E S   O V E R   15000 S T E P S

 NSTEP =    15000   TIME(PS) =      40.000  TEMP(K) =   296.34  PRESS =   -52.2
 Etot   =      7183.3360  EKtot   =      3619.8490  EPtot      =      3563.4869
 BOND   =       497.8483  ANGLE   =      2102.8259  DIHED      =      1080.6605
 1-4 NB =       814.7424  1-4 EEL =      -231.0937  VDWAALS    =     -1113.3200
 EELEC  =       406.6025  EHBOND  =         0.0000  RESTRAINT  =         5.2211
 EAMBER (non-restraint)  =      3558.2658
 EKCMT  =       422.9629  VIRIAL  =       540.4119  VOLUME     =    112537.1303
                                                    Density    =         0.3659
 Ewald error estimate:   0.2144E-03
 ------------------------------------------------------------------------------

      R M S  F L U C T U A T I O N S

 NSTEP =    15000   TIME(PS) =      40.000  TEMP(K) =     3.27  PRESS =   122.2
 Etot   =       135.9578  EKtot   =        39.9894  EPtot      =       117.1786
 BOND   =        40.0953  ANGLE   =       173.8934  DIHED      =        23.6181
 1-4 NB =        11.3597  1-4 EEL =         1.6058  VDWAALS    =       101.0257
 EELEC  =         1.0259  EHBOND  =         0.0000  RESTRAINT  =         1.5092
 EAMBER (non-restraint)  =       115.6693
 EKCMT  =        79.8274  VIRIAL  =       233.6922  VOLUME     =      6150.7673
                                                    Density    =         0.0213
 Ewald error estimate:   0.9399E-04
 ------------------------------------------------------------------------------
