-------------------------------------------------------
          Amber 16 SANDER                              2016
          -------------------------------------------------------

  [-O]verwriting output

File Assignments:

 Here is the input file:

md with sander
&cntrl
ntxo=1,
imin = 0, nstlim = 15000, irest = 1, ntx = 5, dt = 0.002,
ntt = 1, temp0 = 298.0, tautp = 1.0,
ntp = 1, pres0 = 1.0, taup = 0.5,
ntb = 2,
ntc = 2, ntf = 2,
ioutfm = 1, iwrap = 1,
ntwe = 3000, ntwx = 3000, ntpr = 1500,
ntr = 1, restraint_wt = 10.00,
restraintmask="!:WAT,HOH,T3P,T4P",
/

--------------------------------------------------------------------------------
   1.  RESOURCE   USE:
--------------------------------------------------------------------------------

 getting new box info from bottom of inpcrd

 NATOM  =    3337 NTYPES =       8 NBONH =    3321 MBONA  =      17
 NTHETH =      30 MTHETA =      24 NPHIH =      67 MPHIA  =      47
 NHPARM =       0 NPARM  =       0 NNB   =    4576 NRES   =    1104
 NBONA  =      17 NTHETA =      24 NPHIA =      47 NUMBND =       9
 NUMANG =      11 NPTRA  =      11 NATYP =       8 NPHB   =       1
 IFBOX  =       1 NMXRS  =      28 IFCAP =       0 NEXTRA =       0
 NCOPY  =       0

     BOX TYPE: RECTILINEAR

--------------------------------------------------------------------------------
   2.  CONTROL  DATA  FOR  THE  RUN
--------------------------------------------------------------------------------

LIG

General flags:
     imin    =       0, nmropt  =       0

Nature and format of input:
     ntx     =       5, irest   =       1, ntrx    =       1

Nature and format of output:
     ntxo    =       1, ntpr    =    1500, ntrx    =       1, ntwr    =   15000
     iwrap   =       1, ntwx    =    3000, ntwv    =       0, ntwe    =    3000
     ioutfm  =       1, ntwprt  =       0, idecomp =       0, rbornstat=      0

Potential function:
     ntf     =       2, ntb     =       2, igb     =       0, nsnb    =      25
     ipol    =       0, gbsa    =       0, iesp    =       0
     dielc   =   1.00000, cut     =   8.00000, intdiel =   1.00000

Frozen or restrained atoms:
     ibelly  =       0, ntr     =       1
     restraint_wt =  10.00000

Molecular dynamics:
     nstlim  =     15000, nscm    =         0, nrespa  =         1
     t       =   0.00000, dt      =   0.00200, vlimit  =  20.00000

Berendsen (weak-coupling) temperature regulation:
     temp0   = 298.00000, tempi   =   0.00000, tautp   =   1.00000

Pressure regulation:
     ntp     =       1
     pres0   =   1.00000, comp    =  44.60000, taup    =   0.50000

SHAKE:
     ntc     =       2, jfastw  =       0
     tol     =   0.00001

Ewald parameters:
     verbose =       0, ew_type =       0, nbflag  =       1, use_pme =       1
     vdwmeth =       1, eedmeth =       1, netfrc  =       1
     Box X =   36.005   Box Y =   35.267   Box Z =   38.379
     Alpha =   90.000   Beta  =   90.000   Gamma =   90.000
     NFFT1 =   36       NFFT2 =   36       NFFT3 =   40
     Cutoff=    8.000   Tol   =0.100E-04
     Ewald Coefficient =  0.34864
     Interpolation order =    4

    LOADING THE CONSTRAINED ATOMS AS GROUPS

   5.  REFERENCE ATOM COORDINATES

  LIG
     Mask !:WAT,HOH,T3P,T4P; matches    28 atoms

--------------------------------------------------------------------------------
   3.  ATOMIC COORDINATES AND VELOCITIES
--------------------------------------------------------------------------------

LIG
 begin time read from input coords =    10.000 ps

 Number of triangulated 3-point waters found:     1103

     Sum of charges from parm topology file =   0.00200000
     Forcing neutrality...

--------------------------------------------------------------------------------
   4.  RESULTS
 NSTEP =     1500   TIME(PS) =      13.000  TEMP(K) =   295.11  PRESS =  -567.6
 Etot   =     -8254.3894  EKtot   =      1961.6362  EPtot      =    -10216.0256
 BOND   =         8.2010  ANGLE   =         7.4928  DIHED      =         7.1177
 1-4 NB =         9.3022  1-4 EEL =        -0.2061  VDWAALS    =      1522.4844
 EELEC  =    -11774.6617  EHBOND  =         0.0000  RESTRAINT  =         4.2442
 EAMBER (non-restraint)  =    -10220.2698
 EKCMT  =      1000.8249  VIRIAL  =      1533.6124  VOLUME     =     43478.0273
                                                    Density    =         0.7678
 Ewald error estimate:   0.1427E-03
 ------------------------------------------------------------------------------

      A V E R A G E S   O V E R   15000 S T E P S

 NSTEP =    15000   TIME(PS) =      40.000  TEMP(K) =   297.87  PRESS =  -137.1
 Etot   =     -8458.2025  EKtot   =      1979.9633  EPtot      =    -10438.1658
 BOND   =         5.8396  ANGLE   =        10.5656  DIHED      =         7.6513
 1-4 NB =         8.4769  1-4 EEL =        -0.0160  VDWAALS    =      1561.4606
 EELEC  =    -12036.6746  EHBOND  =         0.0000  RESTRAINT  =         4.5308
 EAMBER (non-restraint)  =    -10442.6966
 EKCMT  =       986.5245  VIRIAL  =      1107.2444  VOLUME     =     36099.5195
                                                    Density    =         0.9349
 Ewald error estimate:   0.1539E-03
 ------------------------------------------------------------------------------

      R M S  F L U C T U A T I O N S

 NSTEP =    15000   TIME(PS) =      40.000  TEMP(K) =     4.04  PRESS =   305.6
 Etot   =       114.4831  EKtot   =        26.8273  EPtot      =       121.9954
 BOND   =         1.7824  ANGLE   =         2.4215  DIHED      =         1.0717
 1-4 NB =         0.6770  1-4 EEL =         0.3229  VDWAALS    =        39.7457
 EELEC  =       132.5923  EHBOND  =         0.0000  RESTRAINT  =         1.3448
 EAMBER (non-restraint)  =       120.6505
 EKCMT  =        21.2382  VIRIAL  =       252.6151  VOLUME     =      4094.3828
                                                    Density    =         0.0896
 Ewald error estimate:   0.1152E-03
 ------------------------------------------------------------------------------
