-------------------------------------------------------
          Amber 16 SANDER                              2016
          -------------------------------------------------------

  [-O]verwriting output

File Assignments:

 Here is the input file:

constant temperature
&cntrl
ntxo=1,
imin = 0, nstlim = 4000, irest = 1, ntx = 5, dt = 0.002,
ntt = 1, temp0 = 300.0, tautp = 1.0,
ntb = 1,
ntc = 2, ntf = 2,
ioutfm = 1, iwrap = 1,
ntwe = 800, ntwx = 800, ntpr = 400,
ntr = 1, restraint_wt = 10.00,
restraintmask="!:WAT,HOH,T3P,T4P",
/

--------------------------------------------------------------------------------
   1.  RESOURCE   USE:
--------------------------------------------------------------------------------

 getting new box info from bottom of inpcrd

 NATOM  =    3337 NTYPES =       8 NBONH =    3321 MBONA  =      17
 NTHETH =      30 MTHETA =      24 NPHIH =      67 MPHIA  =      47
 NHPARM =       0 NPARM  =       0 NNB   =    4576 NRES   =    1104
 NBONA  =      17 NTHETA =      24 NPHIA =      47 NUMBND =       9
 NUMANG =      11 NPTRA  =      11 NATYP =       8 NPHB   =       1
 IFBOX  =       1 NMXRS  =      28 IFCAP =       0 NEXTRA =       0
 NCOPY  =       0

     BOX TYPE: RECTILINEAR

--------------------------------------------------------------------------------
   2.  CONTROL  DATA  FOR  THE  RUN
--------------------------------------------------------------------------------

LIG

General flags:
     imin    =       0, nmropt  =       0

Nature and format of input:
     ntx     =       5, irest   =       1, ntrx    =       1

Nature and format of output:
     ntxo    =       1, ntpr    =     400, ntrx    =       1, ntwr    =    4000
     iwrap   =       1, ntwx    =     800, ntwv    =       0, ntwe    =     800
     ioutfm  =       1, ntwprt  =       0, idecomp =       0, rbornstat=      0

Potential function:
     ntf     =       2, ntb     =       1, igb     =       0, nsnb    =      25
     ipol    =       0, gbsa    =       0, iesp    =       0
     dielc   =   1.00000, cut     =   8.00000, intdiel =   1.00000

Frozen or restrained atoms:
     ibelly  =       0, ntr     =       1
     restraint_wt =  10.00000

Molecular dynamics:
     nstlim  =      4000, nscm    =         0, nrespa  =         1
     t       =   0.00000, dt      =   0.00200, vlimit  =  20.00000

Berendsen (weak-coupling) temperature regulation:
     temp0   = 300.00000, tempi   =   0.00000, tautp   =   1.00000

SHAKE:
     ntc     =       2, jfastw  =       0
     tol     =   0.00001

Ewald parameters:
     verbose =       0, ew_type =       0, nbflag  =       1, use_pme =       1
     vdwmeth =       1, eedmeth =       1, netfrc  =       1
     Box X =   36.005   Box Y =   35.267   Box Z =   38.379
     Alpha =   90.000   Beta  =   90.000   Gamma =   90.000
     NFFT1 =   36       NFFT2 =   36       NFFT3 =   40
     Cutoff=    8.000   Tol   =0.100E-04
     Ewald Coefficient =  0.34864
     Interpolation order =    4

    LOADING THE CONSTRAINED ATOMS AS GROUPS

   5.  REFERENCE ATOM COORDINATES

  LIG
     Mask !:WAT,HOH,T3P,T4P; matches    28 atoms

--------------------------------------------------------------------------------
   3.  ATOMIC COORDINATES AND VELOCITIES
--------------------------------------------------------------------------------

LIG
 begin time read from input coords =     2.000 ps

 Number of triangulated 3-point waters found:     1103

     Sum of charges from parm topology file =   0.00200000
     Forcing neutrality...

--------------------------------------------------------------------------------
   4.  RESULTS
 NSTEP =      400   TIME(PS) =       2.800  TEMP(K) =   199.07  PRESS =     0.0
 Etot   =     -9853.1295  EKtot   =      1323.2700  EPtot      =    -11176.3995
 BOND   =         3.5969  ANGLE   =         9.0113  DIHED      =         5.6644
 1-4 NB =         8.9394  1-4 EEL =        -0.4863  VDWAALS    =      1970.3662
 EELEC  =    -13177.0508  EHBOND  =         0.0000  RESTRAINT  =         3.5595
 EAMBER (non-restraint)  =    -11179.9590
 Ewald error estimate:   0.2981E-03
 ------------------------------------------------------------------------------

      A V E R A G E S   O V E R    4000 S T E P S

 NSTEP =     4000   TIME(PS) =      10.000  TEMP(K) =   257.02  PRESS =     0.0
 Etot   =     -8864.1108  EKtot   =      1708.4699  EPtot      =    -10572.5807
 BOND   =         5.0093  ANGLE   =         8.6444  DIHED      =         7.1837
 1-4 NB =         8.3895  1-4 EEL =        -0.0170  VDWAALS    =      1717.2404
 EELEC  =    -12323.1571  EHBOND  =         0.0000  RESTRAINT  =         4.1262
 EAMBER (non-restraint)  =    -10576.7069
 Ewald error estimate:   0.1661E-03
 ------------------------------------------------------------------------------

      R M S  F L U C T U A T I O N S

 NSTEP =     4000   TIME(PS) =      10.000  TEMP(K) =    33.25  PRESS =     0.0
 Etot   =       608.2753  EKtot   =       220.9921  EPtot      =       389.9946
 BOND   =         1.5678  ANGLE   =         1.8095  DIHED      =         0.9113
 1-4 NB =         0.5798  1-4 EEL =         0.2812  VDWAALS    =       166.7609
 EELEC  =       549.6728  EHBOND  =         0.0000  RESTRAINT  =         1.2831
 EAMBER (non-restraint)  =       388.7115
 Ewald error estimate:   0.1248E-03
 ------------------------------------------------------------------------------
