-------------------------------------------------------
          Amber 16 SANDER                              2016
          -------------------------------------------------------

  [-O]verwriting output

File Assignments:

 Here is the input file:

md with sander
&cntrl
ntxo=1,
imin = 0, nstlim = 15000, irest = 1, ntx = 5, dt = 0.002,
ntt = 1, temp0 = 298.0, tautp = 1.0,
ntp = 1, pres0 = 1.0, taup = 0.5,
ntb = 2,
ntc = 2, ntf = 2,
ioutfm = 1, iwrap = 1,
ntwe = 3000, ntwx = 3000, ntpr = 1500,
ntr = 1, restraint_wt = 10.00,
restraintmask="!:WAT,HOH,T3P,T4P",
/

--------------------------------------------------------------------------------
   1.  RESOURCE   USE:
--------------------------------------------------------------------------------

 getting new box info from bottom of inpcrd

 NATOM  =    3277 NTYPES =       8 NBONH =    3262 MBONA  =      16
 NTHETH =      32 MTHETA =      22 NPHIH =      68 MPHIA  =      43
 NHPARM =       0 NPARM  =       0 NNB   =    4495 NRES   =    1084
 NBONA  =      16 NTHETA =      22 NPHIA =      43 NUMBND =       9
 NUMANG =      11 NPTRA  =      12 NATYP =       8 NPHB   =       1
 IFBOX  =       1 NMXRS  =      28 IFCAP =       0 NEXTRA =       0
 NCOPY  =       0

     BOX TYPE: RECTILINEAR

--------------------------------------------------------------------------------
   2.  CONTROL  DATA  FOR  THE  RUN
--------------------------------------------------------------------------------

LIG

General flags:
     imin    =       0, nmropt  =       0

Nature and format of input:
     ntx     =       5, irest   =       1, ntrx    =       1

Nature and format of output:
     ntxo    =       1, ntpr    =    1500, ntrx    =       1, ntwr    =   15000
     iwrap   =       1, ntwx    =    3000, ntwv    =       0, ntwe    =    3000
     ioutfm  =       1, ntwprt  =       0, idecomp =       0, rbornstat=      0

Potential function:
     ntf     =       2, ntb     =       2, igb     =       0, nsnb    =      25
     ipol    =       0, gbsa    =       0, iesp    =       0
     dielc   =   1.00000, cut     =   8.00000, intdiel =   1.00000

Frozen or restrained atoms:
     ibelly  =       0, ntr     =       1
     restraint_wt =  10.00000

Molecular dynamics:
     nstlim  =     15000, nscm    =         0, nrespa  =         1
     t       =   0.00000, dt      =   0.00200, vlimit  =  20.00000

Berendsen (weak-coupling) temperature regulation:
     temp0   = 298.00000, tempi   =   0.00000, tautp   =   1.00000

Pressure regulation:
     ntp     =       1
     pres0   =   1.00000, comp    =  44.60000, taup    =   0.50000

SHAKE:
     ntc     =       2, jfastw  =       0
     tol     =   0.00001

Ewald parameters:
     verbose =       0, ew_type =       0, nbflag  =       1, use_pme =       1
     vdwmeth =       1, eedmeth =       1, netfrc  =       1
     Box X =   35.436   Box Y =   36.762   Box Z =   37.195
     Alpha =   90.000   Beta  =   90.000   Gamma =   90.000
     NFFT1 =   36       NFFT2 =   36       NFFT3 =   40
     Cutoff=    8.000   Tol   =0.100E-04
     Ewald Coefficient =  0.34864
     Interpolation order =    4

    LOADING THE CONSTRAINED ATOMS AS GROUPS

   5.  REFERENCE ATOM COORDINATES

  LIG
     Mask !:WAT,HOH,T3P,T4P; matches    28 atoms

--------------------------------------------------------------------------------
   3.  ATOMIC COORDINATES AND VELOCITIES
--------------------------------------------------------------------------------

LIG
 begin time read from input coords =    10.000 ps

 Number of triangulated 3-point waters found:     1083

     Sum of charges from parm topology file =  -0.00100000
     Forcing neutrality...

--------------------------------------------------------------------------------
   4.  RESULTS
 NSTEP =     1500   TIME(PS) =      13.000  TEMP(K) =   291.12  PRESS =  -312.3
 Etot   =     -8064.6348  EKtot   =      1900.1131  EPtot      =     -9964.7478
 BOND   =         1.8082  ANGLE   =         8.4599  DIHED      =         8.7015
 1-4 NB =         8.4877  1-4 EEL =        -1.5051  VDWAALS    =      1541.1996
 EELEC  =    -11535.0761  EHBOND  =         0.0000  RESTRAINT  =         3.1765
 EAMBER (non-restraint)  =     -9967.9243
 EKCMT  =       924.4039  VIRIAL  =      1220.1596  VOLUME     =     43861.0551
                                                    Density    =         0.7468
 Ewald error estimate:   0.2047E-03
 ------------------------------------------------------------------------------

      A V E R A G E S   O V E R   15000 S T E P S

 NSTEP =    15000   TIME(PS) =      40.000  TEMP(K) =   297.62  PRESS =  -137.6
 Etot   =     -8301.6436  EKtot   =      1942.5539  EPtot      =    -10244.1975
 BOND   =         3.8838  ANGLE   =         8.0444  DIHED      =         8.3069
 1-4 NB =         7.9335  1-4 EEL =        -1.6564  VDWAALS    =      1534.8975
 EELEC  =    -11810.2718  EHBOND  =         0.0000  RESTRAINT  =         4.6647
 EAMBER (non-restraint)  =    -10248.8621
 EKCMT  =       968.6136  VIRIAL  =      1089.0180  VOLUME     =     35778.5401
                                                    Density    =         0.9269
 Ewald error estimate:   0.1701E-03
 ------------------------------------------------------------------------------

      R M S  F L U C T U A T I O N S

 NSTEP =    15000   TIME(PS) =      40.000  TEMP(K) =     4.58  PRESS =   316.0
 Etot   =       124.8329  EKtot   =        29.8669  EPtot      =       135.1445
 BOND   =         1.2919  ANGLE   =         1.6989  DIHED      =         0.8461
 1-4 NB =         0.7006  1-4 EEL =         0.2515  VDWAALS    =        42.5831
 EELEC  =       150.5816  EHBOND  =         0.0000  RESTRAINT  =         1.3660
 EAMBER (non-restraint)  =       133.7786
 EKCMT  =        22.6217  VIRIAL  =       256.9759  VOLUME     =      4338.5767
                                                    Density    =         0.0947
 Ewald error estimate:   0.1274E-03
 ------------------------------------------------------------------------------
