-------------------------------------------------------
          Amber 16 SANDER                              2016
          -------------------------------------------------------

  [-O]verwriting output

File Assignments:

 Here is the input file:

md with sander
&cntrl
ntxo=1,
imin = 0, nstlim = 15000, irest = 1, ntx = 5, dt = 0.002,
ntt = 1, temp0 = 298.0, tautp = 1.0,
ntp = 1, pres0 = 1.0, taup = 0.5,
ntb = 2,
ntc = 2, ntf = 2,
ioutfm = 1, iwrap = 1,
ntwe = 3000, ntwx = 3000, ntpr = 1500,
ntr = 1, restraint_wt = 10.00,
restraintmask="!:CYC",
/

--------------------------------------------------------------------------------
   1.  RESOURCE   USE:
--------------------------------------------------------------------------------

 getting new box info from bottom of inpcrd

 NATOM  =    3772 NTYPES =       4 NBONH =    2512 MBONA  =    1261
 NTHETH =    6278 MTHETA =    1264 NPHIH =   10053 MPHIA  =    3777
 NHPARM =       0 NPARM  =       0 NNB   =   22212 NRES   =     209
 NBONA  =    1261 NTHETA =    1264 NPHIA =    3777 NUMBND =       5
 NUMANG =       8 NPTRA  =       9 NATYP =       4 NPHB   =       0
 IFBOX  =       1 NMXRS  =      28 IFCAP =       0 NEXTRA =       0
 NCOPY  =       0

     BOX TYPE: RECTILINEAR

--------------------------------------------------------------------------------
   2.  CONTROL  DATA  FOR  THE  RUN
--------------------------------------------------------------------------------

LIG

General flags:
     imin    =       0, nmropt  =       0

Nature and format of input:
     ntx     =       5, irest   =       1, ntrx    =       1

Nature and format of output:
     ntxo    =       1, ntpr    =    1500, ntrx    =       1, ntwr    =   15000
     iwrap   =       1, ntwx    =    3000, ntwv    =       0, ntwe    =    3000
     ioutfm  =       1, ntwprt  =       0, idecomp =       0, rbornstat=      0

Potential function:
     ntf     =       2, ntb     =       2, igb     =       0, nsnb    =      25
     ipol    =       0, gbsa    =       0, iesp    =       0
     dielc   =   1.00000, cut     =   8.00000, intdiel =   1.00000

Frozen or restrained atoms:
     ibelly  =       0, ntr     =       1
     restraint_wt =  10.00000

Molecular dynamics:
     nstlim  =     15000, nscm    =         0, nrespa  =         1
     t       =   0.00000, dt      =   0.00200, vlimit  =  20.00000

Berendsen (weak-coupling) temperature regulation:
     temp0   = 298.00000, tempi   =   0.00000, tautp   =   1.00000

Pressure regulation:
     ntp     =       1
     pres0   =   1.00000, comp    =  44.60000, taup    =   0.50000

SHAKE:
     ntc     =       2, jfastw  =       0
     tol     =   0.00001

Ewald parameters:
     verbose =       0, ew_type =       0, nbflag  =       1, use_pme =       1
     vdwmeth =       1, eedmeth =       1, netfrc  =       1
     Box X =   47.696   Box Y =   43.643   Box Z =   38.420
     Alpha =   90.000   Beta  =   90.000   Gamma =   90.000
     NFFT1 =   48       NFFT2 =   45       NFFT3 =   40
     Cutoff=    8.000   Tol   =0.100E-04
     Ewald Coefficient =  0.34864
     Interpolation order =    4

    LOADING THE CONSTRAINED ATOMS AS GROUPS

   5.  REFERENCE ATOM COORDINATES

  LIG
     Mask !:CYC; matches    28 atoms

--------------------------------------------------------------------------------
   3.  ATOMIC COORDINATES AND VELOCITIES
--------------------------------------------------------------------------------

LIG
 begin time read from input coords =    10.000 ps

 Number of triangulated 3-point waters found:        0

     Sum of charges from parm topology file =   0.00000000
     Forcing neutrality...

--------------------------------------------------------------------------------
   4.  RESULTS
 NSTEP =     1500   TIME(PS) =      13.000  TEMP(K) =   293.53  PRESS =   -52.5
 Etot   =      4933.2293  EKtot   =      2567.7290  EPtot      =      2365.5003
 BOND   =       294.4565  ANGLE   =      1268.0205  DIHED      =       784.4460
 1-4 NB =       592.3321  1-4 EEL =      -162.8533  VDWAALS    =      -705.4017
 EELEC  =       286.2755  EHBOND  =         0.0000  RESTRAINT  =         8.2246
 EAMBER (non-restraint)  =      2357.2756
 EKCMT  =       417.3484  VIRIAL  =       512.6079  VOLUME     =     83994.2121
                                                    Density    =         0.3492
 Ewald error estimate:   0.1447E-03
 ------------------------------------------------------------------------------

      A V E R A G E S   O V E R   15000 S T E P S

 NSTEP =    15000   TIME(PS) =      40.000  TEMP(K) =   296.01  PRESS =   -23.7
 Etot   =      5158.0271  EKtot   =      2589.3874  EPtot      =      2568.6397
 BOND   =       353.4672  ANGLE   =      1494.9571  DIHED      =       776.4101
 1-4 NB =       584.4756  1-4 EEL =      -164.3242  VDWAALS    =      -768.1699
 EELEC  =       286.9730  EHBOND  =         0.0000  RESTRAINT  =         4.8508
 EAMBER (non-restraint)  =      2563.7888
 EKCMT  =       312.7054  VIRIAL  =       352.1427  VOLUME     =     83088.0408
                                                    Density    =         0.3536
 Ewald error estimate:   0.1478E-03
 ------------------------------------------------------------------------------

      R M S  F L U C T U A T I O N S

 NSTEP =    15000   TIME(PS) =      40.000  TEMP(K) =     3.74  PRESS =   125.7
 Etot   =       125.8230  EKtot   =        32.7142  EPtot      =       109.7445
 BOND   =        30.7171  ANGLE   =       133.4622  DIHED      =        13.6284
 1-4 NB =         9.0370  1-4 EEL =         1.1615  VDWAALS    =        60.4894
 EELEC  =         0.6852  EHBOND  =         0.0000  RESTRAINT  =         1.7154
 EAMBER (non-restraint)  =       108.0290
 EKCMT  =        62.5763  VIRIAL  =       179.5394  VOLUME     =      3209.2725
                                                    Density    =         0.0142
 Ewald error estimate:   0.8971E-04
 ------------------------------------------------------------------------------
