-------------------------------------------------------
          Amber 16 SANDER                              2016
          -------------------------------------------------------

  [-O]verwriting output

File Assignments:

 Here is the input file:

md with sander
&cntrl
ntxo=1,
imin = 0, nstlim = 15000, irest = 1, ntx = 5, dt = 0.002,
ntt = 1, temp0 = 298.0, tautp = 1.0,
ntp = 1, pres0 = 1.0, taup = 0.5,
ntb = 2,
ntc = 2, ntf = 2,
ioutfm = 1, iwrap = 1,
ntwe = 3000, ntwx = 3000, ntpr = 1500,
ntr = 1, restraint_wt = 10.00,
restraintmask="!:WAT,HOH,T3P,T4P",
/

--------------------------------------------------------------------------------
   1.  RESOURCE   USE:
--------------------------------------------------------------------------------

 getting new box info from bottom of inpcrd

 NATOM  =    3271 NTYPES =       8 NBONH =    3255 MBONA  =      17
 NTHETH =      30 MTHETA =      24 NPHIH =      67 MPHIA  =      47
 NHPARM =       0 NPARM  =       0 NNB   =    4489 NRES   =    1082
 NBONA  =      17 NTHETA =      24 NPHIA =      47 NUMBND =       9
 NUMANG =      11 NPTRA  =      11 NATYP =       8 NPHB   =       1
 IFBOX  =       1 NMXRS  =      28 IFCAP =       0 NEXTRA =       0
 NCOPY  =       0

     BOX TYPE: RECTILINEAR

--------------------------------------------------------------------------------
   2.  CONTROL  DATA  FOR  THE  RUN
--------------------------------------------------------------------------------

LIG

General flags:
     imin    =       0, nmropt  =       0

Nature and format of input:
     ntx     =       5, irest   =       1, ntrx    =       1

Nature and format of output:
     ntxo    =       1, ntpr    =    1500, ntrx    =       1, ntwr    =   15000
     iwrap   =       1, ntwx    =    3000, ntwv    =       0, ntwe    =    3000
     ioutfm  =       1, ntwprt  =       0, idecomp =       0, rbornstat=      0

Potential function:
     ntf     =       2, ntb     =       2, igb     =       0, nsnb    =      25
     ipol    =       0, gbsa    =       0, iesp    =       0
     dielc   =   1.00000, cut     =   8.00000, intdiel =   1.00000

Frozen or restrained atoms:
     ibelly  =       0, ntr     =       1
     restraint_wt =  10.00000

Molecular dynamics:
     nstlim  =     15000, nscm    =         0, nrespa  =         1
     t       =   0.00000, dt      =   0.00200, vlimit  =  20.00000

Berendsen (weak-coupling) temperature regulation:
     temp0   = 298.00000, tempi   =   0.00000, tautp   =   1.00000

Pressure regulation:
     ntp     =       1
     pres0   =   1.00000, comp    =  44.60000, taup    =   0.50000

SHAKE:
     ntc     =       2, jfastw  =       0
     tol     =   0.00001

Ewald parameters:
     verbose =       0, ew_type =       0, nbflag  =       1, use_pme =       1
     vdwmeth =       1, eedmeth =       1, netfrc  =       1
     Box X =   38.861   Box Y =   34.260   Box Z =   35.723
     Alpha =   90.000   Beta  =   90.000   Gamma =   90.000
     NFFT1 =   40       NFFT2 =   36       NFFT3 =   36
     Cutoff=    8.000   Tol   =0.100E-04
     Ewald Coefficient =  0.34864
     Interpolation order =    4

    LOADING THE CONSTRAINED ATOMS AS GROUPS

   5.  REFERENCE ATOM COORDINATES

  LIG
     Mask !:WAT,HOH,T3P,T4P; matches    28 atoms

--------------------------------------------------------------------------------
   3.  ATOMIC COORDINATES AND VELOCITIES
--------------------------------------------------------------------------------

LIG
 begin time read from input coords =    10.000 ps

 Number of triangulated 3-point waters found:     1081

     Sum of charges from parm topology file =  -0.00000000
     Forcing neutrality...

--------------------------------------------------------------------------------
   4.  RESULTS
 NSTEP =     1500   TIME(PS) =      13.000  TEMP(K) =   296.34  PRESS =  -214.1
 Etot   =     -8090.1969  EKtot   =      1930.9632  EPtot      =    -10021.1601
 BOND   =         3.1921  ANGLE   =         9.7310  DIHED      =         9.6882
 1-4 NB =        11.1812  1-4 EEL =        -0.1669  VDWAALS    =      1566.4819
 EELEC  =    -11632.1609  EHBOND  =         0.0000  RESTRAINT  =        10.8934
 EAMBER (non-restraint)  =    -10032.0535
 EKCMT  =       952.4751  VIRIAL  =      1153.7961  VOLUME     =     43556.6619
                                                    Density    =         0.7513
 Ewald error estimate:   0.1294E-03
 ------------------------------------------------------------------------------

      A V E R A G E S   O V E R   15000 S T E P S

 NSTEP =    15000   TIME(PS) =      40.000  TEMP(K) =   297.58  PRESS =  -135.1
 Etot   =     -8282.8724  EKtot   =      1939.0183  EPtot      =    -10221.8907
 BOND   =         5.0474  ANGLE   =         9.2621  DIHED      =         8.9945
 1-4 NB =        11.3604  1-4 EEL =         0.1214  VDWAALS    =      1531.5095
 EELEC  =    -11795.4479  EHBOND  =         0.0000  RESTRAINT  =         7.2618
 EAMBER (non-restraint)  =    -10229.1525
 EKCMT  =       967.6667  VIRIAL  =      1084.0657  VOLUME     =     35713.1190
                                                    Density    =         0.9272
 Ewald error estimate:   0.1691E-03
 ------------------------------------------------------------------------------

      R M S  F L U C T U A T I O N S

 NSTEP =    15000   TIME(PS) =      40.000  TEMP(K) =     4.29  PRESS =   296.5
 Etot   =       108.0725  EKtot   =        27.9577  EPtot      =       117.1910
 BOND   =         1.6441  ANGLE   =         2.0842  DIHED      =         0.9636
 1-4 NB =         1.1677  1-4 EEL =         0.3317  VDWAALS    =        39.0133
 EELEC  =       123.4014  EHBOND  =         0.0000  RESTRAINT  =         1.6531
 EAMBER (non-restraint)  =       115.5378
 EKCMT  =        21.4776  VIRIAL  =       237.2017  VOLUME     =      4184.3977
                                                    Density    =         0.0929
 Ewald error estimate:   0.1290E-03
 ------------------------------------------------------------------------------
