-------------------------------------------------------
          Amber 16 SANDER                              2016
          -------------------------------------------------------

  [-O]verwriting output

File Assignments:

 Here is the input file:

md with sander
&cntrl
ntxo=1,
imin = 0, nstlim = 15000, irest = 1, ntx = 5, dt = 0.002,
ntt = 1, temp0 = 298.0, tautp = 1.0,
ntp = 1, pres0 = 1.0, taup = 0.5,
ntb = 2,
ntc = 2, ntf = 2,
ioutfm = 1, iwrap = 1,
ntwe = 3000, ntwx = 3000, ntpr = 1500,
ntr = 1, restraint_wt = 10.00,
restraintmask="!:WAT,HOH,T3P,T4P",
/

--------------------------------------------------------------------------------
   1.  RESOURCE   USE:
--------------------------------------------------------------------------------

 getting new box info from bottom of inpcrd

 NATOM  =    3142 NTYPES =       6 NBONH =    3130 MBONA  =      13
 NTHETH =      38 MTHETA =      16 NPHIH =      69 MPHIA  =      33
 NHPARM =       0 NPARM  =       0 NNB   =    4318 NRES   =    1039
 NBONA  =      13 NTHETA =      16 NPHIA =      33 NUMBND =       7
 NUMANG =       8 NPTRA  =       9 NATYP =       6 NPHB   =       1
 IFBOX  =       1 NMXRS  =      28 IFCAP =       0 NEXTRA =       0
 NCOPY  =       0

     BOX TYPE: RECTILINEAR

--------------------------------------------------------------------------------
   2.  CONTROL  DATA  FOR  THE  RUN
--------------------------------------------------------------------------------

LIG

General flags:
     imin    =       0, nmropt  =       0

Nature and format of input:
     ntx     =       5, irest   =       1, ntrx    =       1

Nature and format of output:
     ntxo    =       1, ntpr    =    1500, ntrx    =       1, ntwr    =   15000
     iwrap   =       1, ntwx    =    3000, ntwv    =       0, ntwe    =    3000
     ioutfm  =       1, ntwprt  =       0, idecomp =       0, rbornstat=      0

Potential function:
     ntf     =       2, ntb     =       2, igb     =       0, nsnb    =      25
     ipol    =       0, gbsa    =       0, iesp    =       0
     dielc   =   1.00000, cut     =   8.00000, intdiel =   1.00000

Frozen or restrained atoms:
     ibelly  =       0, ntr     =       1
     restraint_wt =  10.00000

Molecular dynamics:
     nstlim  =     15000, nscm    =         0, nrespa  =         1
     t       =   0.00000, dt      =   0.00200, vlimit  =  20.00000

Berendsen (weak-coupling) temperature regulation:
     temp0   = 298.00000, tempi   =   0.00000, tautp   =   1.00000

Pressure regulation:
     ntp     =       1
     pres0   =   1.00000, comp    =  44.60000, taup    =   0.50000

SHAKE:
     ntc     =       2, jfastw  =       0
     tol     =   0.00001

Ewald parameters:
     verbose =       0, ew_type =       0, nbflag  =       1, use_pme =       1
     vdwmeth =       1, eedmeth =       1, netfrc  =       1
     Box X =   36.005   Box Y =   34.260   Box Z =   37.195
     Alpha =   90.000   Beta  =   90.000   Gamma =   90.000
     NFFT1 =   36       NFFT2 =   36       NFFT3 =   40
     Cutoff=    8.000   Tol   =0.100E-04
     Ewald Coefficient =  0.34864
     Interpolation order =    4

    LOADING THE CONSTRAINED ATOMS AS GROUPS

   5.  REFERENCE ATOM COORDINATES

  LIG
     Mask !:WAT,HOH,T3P,T4P; matches    28 atoms

--------------------------------------------------------------------------------
   3.  ATOMIC COORDINATES AND VELOCITIES
--------------------------------------------------------------------------------

LIG
 begin time read from input coords =    10.000 ps

 Number of triangulated 3-point waters found:     1038

     Sum of charges from parm topology file =   0.00200000
     Forcing neutrality...

--------------------------------------------------------------------------------
   4.  RESULTS
 NSTEP =     1500   TIME(PS) =      13.000  TEMP(K) =   289.89  PRESS =  -757.0
 Etot   =     -7763.0242  EKtot   =      1813.4648  EPtot      =     -9576.4890
 BOND   =         4.8289  ANGLE   =         7.3486  DIHED      =         9.2731
 1-4 NB =         6.7792  1-4 EEL =         0.6972  VDWAALS    =      1392.9890
 EELEC  =    -11004.5250  EHBOND  =         0.0000  RESTRAINT  =         6.1199
 EAMBER (non-restraint)  =     -9582.6088
 EKCMT  =       899.5410  VIRIAL  =      1552.1118  VOLUME     =     39925.4998
                                                    Density    =         0.7845
 Ewald error estimate:   0.8157E-04
 ------------------------------------------------------------------------------

      A V E R A G E S   O V E R   15000 S T E P S

 NSTEP =    15000   TIME(PS) =      40.000  TEMP(K) =   297.81  PRESS =  -134.1
 Etot   =     -7965.1222  EKtot   =      1863.0329  EPtot      =     -9828.1551
 BOND   =         2.9071  ANGLE   =         8.4888  DIHED      =         9.7146
 1-4 NB =         7.7349  1-4 EEL =         0.5692  VDWAALS    =      1463.5010
 EELEC  =    -11324.8900  EHBOND  =         0.0000  RESTRAINT  =         3.8193
 EAMBER (non-restraint)  =     -9831.9744
 EKCMT  =       930.9980  VIRIAL  =      1042.6111  VOLUME     =     33646.3300
                                                    Density    =         0.9392
 Ewald error estimate:   0.1704E-03
 ------------------------------------------------------------------------------

      R M S  F L U C T U A T I O N S

 NSTEP =    15000   TIME(PS) =      40.000  TEMP(K) =     4.42  PRESS =   327.1
 Etot   =       106.6686  EKtot   =        27.6726  EPtot      =       115.2042
 BOND   =         1.2003  ANGLE   =         1.4701  DIHED      =         0.7205
 1-4 NB =         0.6576  1-4 EEL =         0.0699  VDWAALS    =        39.9494
 EELEC  =       133.5293  EHBOND  =         0.0000  RESTRAINT  =         1.1001
 EAMBER (non-restraint)  =       114.1041
 EKCMT  =        21.9138  VIRIAL  =       255.5527  VOLUME     =      3456.7605
                                                    Density    =         0.0811
 Ewald error estimate:   0.1264E-03
 ------------------------------------------------------------------------------
