-------------------------------------------------------
          Amber 16 SANDER                              2016
          -------------------------------------------------------

  [-O]verwriting output

File Assignments:

 Here is the input file:

md with sander
&cntrl
ntxo=1,
imin = 0, nstlim = 15000, irest = 1, ntx = 5, dt = 0.002,
ntt = 1, temp0 = 298.0, tautp = 1.0,
ntp = 1, pres0 = 1.0, taup = 0.5,
ntb = 2,
ntc = 2, ntf = 2,
ioutfm = 1, iwrap = 1,
ntwe = 3000, ntwx = 3000, ntpr = 1500,
ntr = 1, restraint_wt = 10.00,
restraintmask="!:CYC",
/

--------------------------------------------------------------------------------
   1.  RESOURCE   USE:
--------------------------------------------------------------------------------

 getting new box info from bottom of inpcrd

 NATOM  =    2692 NTYPES =       4 NBONH =    1792 MBONA  =     901
 NTHETH =    4478 MTHETA =     904 NPHIH =    7173 MPHIA  =    2697
 NHPARM =       0 NPARM  =       0 NNB   =   15851 NRES   =     149
 NBONA  =     901 NTHETA =     904 NPHIA =    2697 NUMBND =       5
 NUMANG =       8 NPTRA  =       9 NATYP =       4 NPHB   =       0
 IFBOX  =       1 NMXRS  =      28 IFCAP =       0 NEXTRA =       0
 NCOPY  =       0

     BOX TYPE: RECTILINEAR

--------------------------------------------------------------------------------
   2.  CONTROL  DATA  FOR  THE  RUN
--------------------------------------------------------------------------------

LIG

General flags:
     imin    =       0, nmropt  =       0

Nature and format of input:
     ntx     =       5, irest   =       1, ntrx    =       1

Nature and format of output:
     ntxo    =       1, ntpr    =    1500, ntrx    =       1, ntwr    =   15000
     iwrap   =       1, ntwx    =    3000, ntwv    =       0, ntwe    =    3000
     ioutfm  =       1, ntwprt  =       0, idecomp =       0, rbornstat=      0

Potential function:
     ntf     =       2, ntb     =       2, igb     =       0, nsnb    =      25
     ipol    =       0, gbsa    =       0, iesp    =       0
     dielc   =   1.00000, cut     =   8.00000, intdiel =   1.00000

Frozen or restrained atoms:
     ibelly  =       0, ntr     =       1
     restraint_wt =  10.00000

Molecular dynamics:
     nstlim  =     15000, nscm    =         0, nrespa  =         1
     t       =   0.00000, dt      =   0.00200, vlimit  =  20.00000

Berendsen (weak-coupling) temperature regulation:
     temp0   = 298.00000, tempi   =   0.00000, tautp   =   1.00000

Pressure regulation:
     ntp     =       1
     pres0   =   1.00000, comp    =  44.60000, taup    =   0.50000

SHAKE:
     ntc     =       2, jfastw  =       0
     tol     =   0.00001

Ewald parameters:
     verbose =       0, ew_type =       0, nbflag  =       1, use_pme =       1
     vdwmeth =       1, eedmeth =       1, netfrc  =       1
     Box X =   40.882   Box Y =   36.369   Box Z =   38.420
     Alpha =   90.000   Beta  =   90.000   Gamma =   90.000
     NFFT1 =   40       NFFT2 =   36       NFFT3 =   40
     Cutoff=    8.000   Tol   =0.100E-04
     Ewald Coefficient =  0.34864
     Interpolation order =    4

    LOADING THE CONSTRAINED ATOMS AS GROUPS

   5.  REFERENCE ATOM COORDINATES

  LIG
     Mask !:CYC; matches    28 atoms

--------------------------------------------------------------------------------
   3.  ATOMIC COORDINATES AND VELOCITIES
--------------------------------------------------------------------------------

LIG
 begin time read from input coords =    10.000 ps

 Number of triangulated 3-point waters found:        0

     Sum of charges from parm topology file =   0.00000000
     Forcing neutrality...

--------------------------------------------------------------------------------
   4.  RESULTS
 NSTEP =     1500   TIME(PS) =      13.000  TEMP(K) =   295.27  PRESS =   -34.3
 Etot   =      3547.0651  EKtot   =      1843.5756  EPtot      =      1703.4895
 BOND   =       234.0715  ANGLE   =       916.4908  DIHED      =       574.0752
 1-4 NB =       406.7945  1-4 EEL =      -116.3884  VDWAALS    =      -521.2630
 EELEC  =       203.6673  EHBOND  =         0.0000  RESTRAINT  =         6.0415
 EAMBER (non-restraint)  =      1697.4481
 EKCMT  =       290.7590  VIRIAL  =       334.5165  VOLUME     =     59160.2845
                                                    Density    =         0.3541
 Ewald error estimate:   0.8840E-04
 ------------------------------------------------------------------------------

      A V E R A G E S   O V E R   15000 S T E P S

 NSTEP =    15000   TIME(PS) =      40.000  TEMP(K) =   296.17  PRESS =   -55.6
 Etot   =      3675.1565  EKtot   =      1849.2289  EPtot      =      1825.9275
 BOND   =       255.4991  ANGLE   =      1077.0867  DIHED      =       554.1644
 1-4 NB =       417.2240  1-4 EEL =      -116.9108  VDWAALS    =      -572.6105
 EELEC  =       204.1333  EHBOND  =         0.0000  RESTRAINT  =         7.3413
 EAMBER (non-restraint)  =      1818.5862
 EKCMT  =       214.2367  VIRIAL  =       277.7853  VOLUME     =     56938.2383
                                                    Density    =         0.3692
 Ewald error estimate:   0.1861E-03
 ------------------------------------------------------------------------------

      R M S  F L U C T U A T I O N S

 NSTEP =    15000   TIME(PS) =      40.000  TEMP(K) =     4.48  PRESS =   137.5
 Etot   =        78.0172  EKtot   =        27.9773  EPtot      =        67.9068
 BOND   =        23.3048  ANGLE   =        92.3276  DIHED      =        11.3522
 1-4 NB =         7.5758  1-4 EEL =         0.9539  VDWAALS    =        56.7021
 EELEC  =         0.5874  EHBOND  =         0.0000  RESTRAINT  =         2.3430
 EAMBER (non-restraint)  =        65.5638
 EKCMT  =        39.9613  VIRIAL  =       144.5272  VOLUME     =      3317.2649
                                                    Density    =         0.0228
 Ewald error estimate:   0.1150E-03
 ------------------------------------------------------------------------------
