-------------------------------------------------------
          Amber 16 SANDER                              2016
          -------------------------------------------------------

  [-O]verwriting output

File Assignments:

 Here is the input file:

md with sander
&cntrl
ntxo=1,
imin = 0, nstlim = 15000, irest = 1, ntx = 5, dt = 0.002,
ntt = 1, temp0 = 298.0, tautp = 1.0,
ntp = 1, pres0 = 1.0, taup = 0.5,
ntb = 2,
ntc = 2, ntf = 2,
ioutfm = 1, iwrap = 1,
ntwe = 3000, ntwx = 3000, ntpr = 1500,
ntr = 1, restraint_wt = 10.00,
restraintmask="!:CYC",
/

--------------------------------------------------------------------------------
   1.  RESOURCE   USE:
--------------------------------------------------------------------------------

 getting new box info from bottom of inpcrd

 NATOM  =    5284 NTYPES =       6 NBONH =    3517 MBONA  =    1768
 NTHETH =    8792 MTHETA =    1774 NPHIH =   14084 MPHIA  =    5299
 NHPARM =       0 NPARM  =       0 NNB   =   31116 NRES   =     293
 NBONA  =    1768 NTHETA =    1774 NPHIA =    5299 NUMBND =       7
 NUMANG =      11 NPTRA  =      12 NATYP =       6 NPHB   =       0
 IFBOX  =       1 NMXRS  =      28 IFCAP =       0 NEXTRA =       0
 NCOPY  =       0

     BOX TYPE: RECTILINEAR

--------------------------------------------------------------------------------
   2.  CONTROL  DATA  FOR  THE  RUN
--------------------------------------------------------------------------------

LIG

General flags:
     imin    =       0, nmropt  =       0

Nature and format of input:
     ntx     =       5, irest   =       1, ntrx    =       1

Nature and format of output:
     ntxo    =       1, ntpr    =    1500, ntrx    =       1, ntwr    =   15000
     iwrap   =       1, ntwx    =    3000, ntwv    =       0, ntwe    =    3000
     ioutfm  =       1, ntwprt  =       0, idecomp =       0, rbornstat=      0

Potential function:
     ntf     =       2, ntb     =       2, igb     =       0, nsnb    =      25
     ipol    =       0, gbsa    =       0, iesp    =       0
     dielc   =   1.00000, cut     =   8.00000, intdiel =   1.00000

Frozen or restrained atoms:
     ibelly  =       0, ntr     =       1
     restraint_wt =  10.00000

Molecular dynamics:
     nstlim  =     15000, nscm    =         0, nrespa  =         1
     t       =   0.00000, dt      =   0.00200, vlimit  =  20.00000

Berendsen (weak-coupling) temperature regulation:
     temp0   = 298.00000, tempi   =   0.00000, tautp   =   1.00000

Pressure regulation:
     ntp     =       1
     pres0   =   1.00000, comp    =  44.60000, taup    =   0.50000

SHAKE:
     ntc     =       2, jfastw  =       0
     tol     =   0.00001

Ewald parameters:
     verbose =       0, ew_type =       0, nbflag  =       1, use_pme =       1
     vdwmeth =       1, eedmeth =       1, netfrc  =       1
     Box X =   40.882   Box Y =   50.917   Box Z =   53.789
     Alpha =   90.000   Beta  =   90.000   Gamma =   90.000
     NFFT1 =   40       NFFT2 =   50       NFFT3 =   54
     Cutoff=    8.000   Tol   =0.100E-04
     Ewald Coefficient =  0.34864
     Interpolation order =    4

    LOADING THE CONSTRAINED ATOMS AS GROUPS

   5.  REFERENCE ATOM COORDINATES

  LIG
     Mask !:CYC; matches    28 atoms

--------------------------------------------------------------------------------
   3.  ATOMIC COORDINATES AND VELOCITIES
--------------------------------------------------------------------------------

LIG
 begin time read from input coords =    10.000 ps

 Number of triangulated 3-point waters found:        0

     Sum of charges from parm topology file =   0.00200000
     Forcing neutrality...

--------------------------------------------------------------------------------
   4.  RESULTS
 NSTEP =     1500   TIME(PS) =      13.000  TEMP(K) =   288.15  PRESS =    38.7
 Etot   =      6980.0646  EKtot   =      3531.5876  EPtot      =      3448.4771
 BOND   =       438.1861  ANGLE   =      1874.4397  DIHED      =      1137.1624
 1-4 NB =       816.2546  1-4 EEL =      -229.0590  VDWAALS    =     -1000.8064
 EELEC  =       407.2481  EHBOND  =         0.0000  RESTRAINT  =         5.0515
 EAMBER (non-restraint)  =      3443.4256
 EKCMT  =       537.9775  VIRIAL  =       441.0775  VOLUME     =    116066.1496
                                                    Density    =         0.3546
 Ewald error estimate:   0.1652E-03
 ------------------------------------------------------------------------------

      A V E R A G E S   O V E R   15000 S T E P S

 NSTEP =    15000   TIME(PS) =      40.000  TEMP(K) =   296.31  PRESS =   -58.3
 Etot   =      7214.7146  EKtot   =      3631.5507  EPtot      =      3583.1639
 BOND   =       505.8550  ANGLE   =      2125.0479  DIHED      =      1092.9497
 1-4 NB =       819.9821  1-4 EEL =      -231.7278  VDWAALS    =     -1144.4273
 EELEC  =       409.2342  EHBOND  =         0.0000  RESTRAINT  =         6.2502
 EAMBER (non-restraint)  =      3576.9137
 EKCMT  =       415.0743  VIRIAL  =       545.1997  VOLUME     =    112198.4110
                                                    Density    =         0.3682
 Ewald error estimate:   0.2160E-03
 ------------------------------------------------------------------------------

      R M S  F L U C T U A T I O N S

 NSTEP =    15000   TIME(PS) =      40.000  TEMP(K) =     3.35  PRESS =   130.4
 Etot   =       135.3071  EKtot   =        41.0774  EPtot      =       114.5858
 BOND   =        41.3114  ANGLE   =       181.8971  DIHED      =        22.8708
 1-4 NB =        10.0858  1-4 EEL =         1.3816  VDWAALS    =       118.3559
 EELEC  =         0.9182  EHBOND  =         0.0000  RESTRAINT  =         1.8601
 EAMBER (non-restraint)  =       112.7257
 EKCMT  =        79.3504  VIRIAL  =       250.4144  VOLUME     =      6511.1182
                                                    Density    =         0.0228
 Ewald error estimate:   0.8670E-04
 ------------------------------------------------------------------------------
