-------------------------------------------------------
          Amber 16 SANDER                              2016
          -------------------------------------------------------

  [-O]verwriting output

File Assignments:

 Here is the input file:

constant temperature
&cntrl
ntxo=1,
imin = 0, nstlim = 4000, irest = 1, ntx = 5, dt = 0.002,
ntt = 1, temp0 = 300.0, tautp = 1.0,
ntb = 1,
ntc = 2, ntf = 2,
ioutfm = 1, iwrap = 1,
ntwe = 800, ntwx = 800, ntpr = 400,
ntr = 1, restraint_wt = 10.00,
restraintmask="!:CYC",
/

--------------------------------------------------------------------------------
   1.  RESOURCE   USE:
--------------------------------------------------------------------------------

 getting new box info from bottom of inpcrd

 NATOM  =    5284 NTYPES =       6 NBONH =    3517 MBONA  =    1768
 NTHETH =    8792 MTHETA =    1774 NPHIH =   14084 MPHIA  =    5299
 NHPARM =       0 NPARM  =       0 NNB   =   31116 NRES   =     293
 NBONA  =    1768 NTHETA =    1774 NPHIA =    5299 NUMBND =       7
 NUMANG =      11 NPTRA  =      12 NATYP =       6 NPHB   =       0
 IFBOX  =       1 NMXRS  =      28 IFCAP =       0 NEXTRA =       0
 NCOPY  =       0

     BOX TYPE: RECTILINEAR

--------------------------------------------------------------------------------
   2.  CONTROL  DATA  FOR  THE  RUN
--------------------------------------------------------------------------------

LIG

General flags:
     imin    =       0, nmropt  =       0

Nature and format of input:
     ntx     =       5, irest   =       1, ntrx    =       1

Nature and format of output:
     ntxo    =       1, ntpr    =     400, ntrx    =       1, ntwr    =    4000
     iwrap   =       1, ntwx    =     800, ntwv    =       0, ntwe    =     800
     ioutfm  =       1, ntwprt  =       0, idecomp =       0, rbornstat=      0

Potential function:
     ntf     =       2, ntb     =       1, igb     =       0, nsnb    =      25
     ipol    =       0, gbsa    =       0, iesp    =       0
     dielc   =   1.00000, cut     =   8.00000, intdiel =   1.00000

Frozen or restrained atoms:
     ibelly  =       0, ntr     =       1
     restraint_wt =  10.00000

Molecular dynamics:
     nstlim  =      4000, nscm    =         0, nrespa  =         1
     t       =   0.00000, dt      =   0.00200, vlimit  =  20.00000

Berendsen (weak-coupling) temperature regulation:
     temp0   = 300.00000, tempi   =   0.00000, tautp   =   1.00000

SHAKE:
     ntc     =       2, jfastw  =       0
     tol     =   0.00001

Ewald parameters:
     verbose =       0, ew_type =       0, nbflag  =       1, use_pme =       1
     vdwmeth =       1, eedmeth =       1, netfrc  =       1
     Box X =   40.882   Box Y =   50.917   Box Z =   53.789
     Alpha =   90.000   Beta  =   90.000   Gamma =   90.000
     NFFT1 =   40       NFFT2 =   50       NFFT3 =   54
     Cutoff=    8.000   Tol   =0.100E-04
     Ewald Coefficient =  0.34864
     Interpolation order =    4

    LOADING THE CONSTRAINED ATOMS AS GROUPS

   5.  REFERENCE ATOM COORDINATES

  LIG
     Mask !:CYC; matches    28 atoms

--------------------------------------------------------------------------------
   3.  ATOMIC COORDINATES AND VELOCITIES
--------------------------------------------------------------------------------

LIG
 begin time read from input coords =     2.000 ps

 Number of triangulated 3-point waters found:        0

     Sum of charges from parm topology file =   0.00200000
     Forcing neutrality...

--------------------------------------------------------------------------------
   4.  RESULTS
 NSTEP =      400   TIME(PS) =       2.800  TEMP(K) =   209.42  PRESS =     0.0
 Etot   =      4179.5126  EKtot   =      2566.6954  EPtot      =      1612.8171
 BOND   =       134.7458  ANGLE   =       537.2521  DIHED      =       997.7000
 1-4 NB =       761.3655  1-4 EEL =      -236.2055  VDWAALS    =      -995.0261
 EELEC  =       411.2005  EHBOND  =         0.0000  RESTRAINT  =         1.7848
 EAMBER (non-restraint)  =      1611.0323
 Ewald error estimate:   0.1526E-03
 ------------------------------------------------------------------------------

      A V E R A G E S   O V E R    4000 S T E P S

 NSTEP =     4000   TIME(PS) =      10.000  TEMP(K) =   262.50  PRESS =     0.0
 Etot   =      5688.7790  EKtot   =      3217.2607  EPtot      =      2471.5183
 BOND   =       276.1623  ANGLE   =      1104.7946  DIHED      =      1104.7034
 1-4 NB =       799.0563  1-4 EEL =      -231.4725  VDWAALS    =      -994.6261
 EELEC  =       408.4315  EHBOND  =         0.0000  RESTRAINT  =         4.4688
 EAMBER (non-restraint)  =      2467.0495
 Ewald error estimate:   0.1410E-03
 ------------------------------------------------------------------------------

      R M S  F L U C T U A T I O N S

 NSTEP =     4000   TIME(PS) =      10.000  TEMP(K) =    30.86  PRESS =     0.0
 Etot   =       936.2204  EKtot   =       378.1614  EPtot      =       568.5059
 BOND   =        92.4752  ANGLE   =       379.1353  DIHED      =        61.0819
 1-4 NB =        31.7473  1-4 EEL =         2.1411  VDWAALS    =        20.8197
 EELEC  =         1.2244  EHBOND  =         0.0000  RESTRAINT  =         1.8396
 EAMBER (non-restraint)  =       566.6663
 Ewald error estimate:   0.7664E-04
 ------------------------------------------------------------------------------
