-------------------------------------------------------
          Amber 16 SANDER                              2016
          -------------------------------------------------------

  [-O]verwriting output

File Assignments:

 Here is the input file:

md with sander
&cntrl
ntxo=1,
imin = 0, nstlim = 15000, irest = 1, ntx = 5, dt = 0.002,
ntt = 1, temp0 = 298.0, tautp = 1.0,
ntp = 1, pres0 = 1.0, taup = 0.5,
ntb = 2,
ntc = 2, ntf = 2,
ioutfm = 1, iwrap = 1,
ntwe = 3000, ntwx = 3000, ntpr = 1500,
ntr = 1, restraint_wt = 10.00,
restraintmask="!:CYC",
/

--------------------------------------------------------------------------------
   1.  RESOURCE   USE:
--------------------------------------------------------------------------------

 getting new box info from bottom of inpcrd

 NATOM  =    5284 NTYPES =       6 NBONH =    3518 MBONA  =    1767
 NTHETH =    8794 MTHETA =    1772 NPHIH =   14084 MPHIA  =    5296
 NHPARM =       0 NPARM  =       0 NNB   =   31116 NRES   =     293
 NBONA  =    1767 NTHETA =    1772 NPHIA =    5296 NUMBND =       7
 NUMANG =      11 NPTRA  =      12 NATYP =       6 NPHB   =       0
 IFBOX  =       1 NMXRS  =      28 IFCAP =       0 NEXTRA =       0
 NCOPY  =       0

     BOX TYPE: RECTILINEAR

--------------------------------------------------------------------------------
   2.  CONTROL  DATA  FOR  THE  RUN
--------------------------------------------------------------------------------

LIG

General flags:
     imin    =       0, nmropt  =       0

Nature and format of input:
     ntx     =       5, irest   =       1, ntrx    =       1

Nature and format of output:
     ntxo    =       1, ntpr    =    1500, ntrx    =       1, ntwr    =   15000
     iwrap   =       1, ntwx    =    3000, ntwv    =       0, ntwe    =    3000
     ioutfm  =       1, ntwprt  =       0, idecomp =       0, rbornstat=      0

Potential function:
     ntf     =       2, ntb     =       2, igb     =       0, nsnb    =      25
     ipol    =       0, gbsa    =       0, iesp    =       0
     dielc   =   1.00000, cut     =   8.00000, intdiel =   1.00000

Frozen or restrained atoms:
     ibelly  =       0, ntr     =       1
     restraint_wt =  10.00000

Molecular dynamics:
     nstlim  =     15000, nscm    =         0, nrespa  =         1
     t       =   0.00000, dt      =   0.00200, vlimit  =  20.00000

Berendsen (weak-coupling) temperature regulation:
     temp0   = 298.00000, tempi   =   0.00000, tautp   =   1.00000

Pressure regulation:
     ntp     =       1
     pres0   =   1.00000, comp    =  44.60000, taup    =   0.50000

SHAKE:
     ntc     =       2, jfastw  =       0
     tol     =   0.00001

Ewald parameters:
     verbose =       0, ew_type =       0, nbflag  =       1, use_pme =       1
     vdwmeth =       1, eedmeth =       1, netfrc  =       1
     Box X =   40.882   Box Y =   50.917   Box Z =   53.789
     Alpha =   90.000   Beta  =   90.000   Gamma =   90.000
     NFFT1 =   40       NFFT2 =   50       NFFT3 =   54
     Cutoff=    8.000   Tol   =0.100E-04
     Ewald Coefficient =  0.34864
     Interpolation order =    4

    LOADING THE CONSTRAINED ATOMS AS GROUPS

   5.  REFERENCE ATOM COORDINATES

  LIG
     Mask !:CYC; matches    28 atoms

--------------------------------------------------------------------------------
   3.  ATOMIC COORDINATES AND VELOCITIES
--------------------------------------------------------------------------------

LIG
 begin time read from input coords =    10.000 ps

 Number of triangulated 3-point waters found:        0

     Sum of charges from parm topology file =   0.00000000
     Forcing neutrality...

--------------------------------------------------------------------------------
   4.  RESULTS
 NSTEP =     1500   TIME(PS) =      13.000  TEMP(K) =   291.08  PRESS =    55.8
 Etot   =      6957.3998  EKtot   =      3567.2340  EPtot      =      3390.1658
 BOND   =       462.3999  ANGLE   =      1801.4404  DIHED      =      1132.4842
 1-4 NB =       825.2983  1-4 EEL =      -225.0588  VDWAALS    =     -1014.6765
 EELEC  =       403.7216  EHBOND  =         0.0000  RESTRAINT  =         4.5567
 EAMBER (non-restraint)  =      3385.6091
 EKCMT  =       546.9630  VIRIAL  =       406.2444  VOLUME     =    116723.3975
                                                    Density    =         0.3524
 Ewald error estimate:   0.1015E-03
 ------------------------------------------------------------------------------

      A V E R A G E S   O V E R   15000 S T E P S

 NSTEP =    15000   TIME(PS) =      40.000  TEMP(K) =   296.36  PRESS =   -55.7
 Etot   =      7209.5991  EKtot   =      3631.8951  EPtot      =      3577.7040
 BOND   =       500.1548  ANGLE   =      2121.3154  DIHED      =      1088.9512
 1-4 NB =       818.5641  1-4 EEL =      -227.3690  VDWAALS    =     -1135.4797
 EELEC  =       405.3541  EHBOND  =         0.0000  RESTRAINT  =         6.2130
 EAMBER (non-restraint)  =      3571.4910
 EKCMT  =       417.0725  VIRIAL  =       541.8459  VOLUME     =    112131.3289
                                                    Density    =         0.3682
 Ewald error estimate:   0.1997E-03
 ------------------------------------------------------------------------------

      R M S  F L U C T U A T I O N S

 NSTEP =    15000   TIME(PS) =      40.000  TEMP(K) =     3.55  PRESS =   122.9
 Etot   =       147.9255  EKtot   =        43.5067  EPtot      =       125.5801
 BOND   =        38.4203  ANGLE   =       188.8554  DIHED      =        24.5412
 1-4 NB =        11.0836  1-4 EEL =         1.5324  VDWAALS    =       119.4903
 EELEC  =         0.9817  EHBOND  =         0.0000  RESTRAINT  =         2.2909
 EAMBER (non-restraint)  =       123.2892
 EKCMT  =        82.7726  VIRIAL  =       229.7343  VOLUME     =      6711.3516
                                                    Density    =         0.0234
 Ewald error estimate:   0.9393E-04
 ------------------------------------------------------------------------------
