-------------------------------------------------------
          Amber 16 SANDER                              2016
          -------------------------------------------------------

  [-O]verwriting output

File Assignments:

 Here is the input file:

md with sander
&cntrl
ntxo=1,
imin = 0, nstlim = 15000, irest = 1, ntx = 5, dt = 0.002,
ntt = 1, temp0 = 298.0, tautp = 1.0,
ntp = 1, pres0 = 1.0, taup = 0.5,
ntb = 2,
ntc = 2, ntf = 2,
ioutfm = 1, iwrap = 1,
ntwe = 3000, ntwx = 3000, ntpr = 1500,
ntr = 1, restraint_wt = 10.00,
restraintmask="!:WAT,HOH,T3P,T4P",
/

--------------------------------------------------------------------------------
   1.  RESOURCE   USE:
--------------------------------------------------------------------------------

 getting new box info from bottom of inpcrd

 NATOM  =    3163 NTYPES =       6 NBONH =    3151 MBONA  =      13
 NTHETH =      38 MTHETA =      16 NPHIH =      69 MPHIA  =      33
 NHPARM =       0 NPARM  =       0 NNB   =    4343 NRES   =    1046
 NBONA  =      13 NTHETA =      16 NPHIA =      33 NUMBND =       7
 NUMANG =       8 NPTRA  =       9 NATYP =       6 NPHB   =       1
 IFBOX  =       1 NMXRS  =      28 IFCAP =       0 NEXTRA =       0
 NCOPY  =       0

     BOX TYPE: RECTILINEAR

--------------------------------------------------------------------------------
   2.  CONTROL  DATA  FOR  THE  RUN
--------------------------------------------------------------------------------

LIG

General flags:
     imin    =       0, nmropt  =       0

Nature and format of input:
     ntx     =       5, irest   =       1, ntrx    =       1

Nature and format of output:
     ntxo    =       1, ntpr    =    1500, ntrx    =       1, ntwr    =   15000
     iwrap   =       1, ntwx    =    3000, ntwv    =       0, ntwe    =    3000
     ioutfm  =       1, ntwprt  =       0, idecomp =       0, rbornstat=      0

Potential function:
     ntf     =       2, ntb     =       2, igb     =       0, nsnb    =      25
     ipol    =       0, gbsa    =       0, iesp    =       0
     dielc   =   1.00000, cut     =   8.00000, intdiel =   1.00000

Frozen or restrained atoms:
     ibelly  =       0, ntr     =       1
     restraint_wt =  10.00000

Molecular dynamics:
     nstlim  =     15000, nscm    =         0, nrespa  =         1
     t       =   0.00000, dt      =   0.00200, vlimit  =  20.00000

Berendsen (weak-coupling) temperature regulation:
     temp0   = 298.00000, tempi   =   0.00000, tautp   =   1.00000

Pressure regulation:
     ntp     =       1
     pres0   =   1.00000, comp    =  44.60000, taup    =   0.50000

SHAKE:
     ntc     =       2, jfastw  =       0
     tol     =   0.00001

Ewald parameters:
     verbose =       0, ew_type =       0, nbflag  =       1, use_pme =       1
     vdwmeth =       1, eedmeth =       1, netfrc  =       1
     Box X =   35.890   Box Y =   34.260   Box Z =   37.638
     Alpha =   90.000   Beta  =   90.000   Gamma =   90.000
     NFFT1 =   36       NFFT2 =   36       NFFT3 =   40
     Cutoff=    8.000   Tol   =0.100E-04
     Ewald Coefficient =  0.34864
     Interpolation order =    4

    LOADING THE CONSTRAINED ATOMS AS GROUPS

   5.  REFERENCE ATOM COORDINATES

  LIG
     Mask !:WAT,HOH,T3P,T4P; matches    28 atoms

--------------------------------------------------------------------------------
   3.  ATOMIC COORDINATES AND VELOCITIES
--------------------------------------------------------------------------------

LIG
 begin time read from input coords =    10.000 ps

 Number of triangulated 3-point waters found:     1045

     Sum of charges from parm topology file =   0.00000000
     Forcing neutrality...

--------------------------------------------------------------------------------
   4.  RESULTS
 NSTEP =     1500   TIME(PS) =      13.000  TEMP(K) =   299.14  PRESS =  -277.7
 Etot   =     -7823.4058  EKtot   =      1883.8113  EPtot      =     -9707.2171
 BOND   =         3.5319  ANGLE   =         6.0452  DIHED      =         4.4805
 1-4 NB =         7.0088  1-4 EEL =         0.3260  VDWAALS    =      1503.3845
 EELEC  =    -11236.7278  EHBOND  =         0.0000  RESTRAINT  =         4.7338
 EAMBER (non-restraint)  =     -9711.9509
 EKCMT  =       940.2072  VIRIAL  =      1196.1780  VOLUME     =     42689.8704
                                                    Density    =         0.7386
 Ewald error estimate:   0.1353E-03
 ------------------------------------------------------------------------------

      A V E R A G E S   O V E R   15000 S T E P S

 NSTEP =    15000   TIME(PS) =      40.000  TEMP(K) =   297.51  PRESS =  -136.2
 Etot   =     -8005.0846  EKtot   =      1873.5445  EPtot      =     -9878.6291
 BOND   =         2.5678  ANGLE   =         8.0035  DIHED      =         5.6202
 1-4 NB =         6.8218  1-4 EEL =         0.4551  VDWAALS    =      1473.2486
 EELEC  =    -11379.4960  EHBOND  =         0.0000  RESTRAINT  =         4.1499
 EAMBER (non-restraint)  =     -9882.7789
 EKCMT  =       937.0487  VIRIAL  =      1051.0779  VOLUME     =     34642.6205
                                                    Density    =         0.9217
 Ewald error estimate:   0.1643E-03
 ------------------------------------------------------------------------------

      R M S  F L U C T U A T I O N S

 NSTEP =    15000   TIME(PS) =      40.000  TEMP(K) =     4.66  PRESS =   300.0
 Etot   =       106.6025  EKtot   =        29.3434  EPtot      =       117.8667
 BOND   =         0.9363  ANGLE   =         1.3211  DIHED      =         0.6566
 1-4 NB =         0.5001  1-4 EEL =         0.0643  VDWAALS    =        38.0588
 EELEC  =       129.0692  EHBOND  =         0.0000  RESTRAINT  =         1.1652
 EAMBER (non-restraint)  =       116.7015
 EKCMT  =        23.0089  VIRIAL  =       234.8551  VOLUME     =      4213.2632
                                                    Density    =         0.0959
 Ewald error estimate:   0.1244E-03
 ------------------------------------------------------------------------------
