-------------------------------------------------------
          Amber 16 SANDER                              2016
          -------------------------------------------------------

  [-O]verwriting output

File Assignments:

 Here is the input file:

md with sander
&cntrl
ntxo=1,
imin = 0, nstlim = 15000, irest = 1, ntx = 5, dt = 0.002,
ntt = 1, temp0 = 298.0, tautp = 1.0,
ntp = 1, pres0 = 1.0, taup = 0.5,
ntb = 2,
ntc = 2, ntf = 2,
ioutfm = 1, iwrap = 1,
ntwe = 3000, ntwx = 3000, ntpr = 1500,
ntr = 1, restraint_wt = 10.00,
restraintmask="!:WAT,HOH,T3P,T4P",
/

--------------------------------------------------------------------------------
   1.  RESOURCE   USE:
--------------------------------------------------------------------------------

 getting new box info from bottom of inpcrd

 NATOM  =    3286 NTYPES =       8 NBONH =    3272 MBONA  =      15
 NTHETH =      34 MTHETA =      20 NPHIH =      68 MPHIA  =      40
 NHPARM =       0 NPARM  =       0 NNB   =    4509 NRES   =    1087
 NBONA  =      15 NTHETA =      20 NPHIA =      40 NUMBND =       9
 NUMANG =      11 NPTRA  =      12 NATYP =       8 NPHB   =       1
 IFBOX  =       1 NMXRS  =      28 IFCAP =       0 NEXTRA =       0
 NCOPY  =       0

     BOX TYPE: RECTILINEAR

--------------------------------------------------------------------------------
   2.  CONTROL  DATA  FOR  THE  RUN
--------------------------------------------------------------------------------

LIG

General flags:
     imin    =       0, nmropt  =       0

Nature and format of input:
     ntx     =       5, irest   =       1, ntrx    =       1

Nature and format of output:
     ntxo    =       1, ntpr    =    1500, ntrx    =       1, ntwr    =   15000
     iwrap   =       1, ntwx    =    3000, ntwv    =       0, ntwe    =    3000
     ioutfm  =       1, ntwprt  =       0, idecomp =       0, rbornstat=      0

Potential function:
     ntf     =       2, ntb     =       2, igb     =       0, nsnb    =      25
     ipol    =       0, gbsa    =       0, iesp    =       0
     dielc   =   1.00000, cut     =   8.00000, intdiel =   1.00000

Frozen or restrained atoms:
     ibelly  =       0, ntr     =       1
     restraint_wt =  10.00000

Molecular dynamics:
     nstlim  =     15000, nscm    =         0, nrespa  =         1
     t       =   0.00000, dt      =   0.00200, vlimit  =  20.00000

Berendsen (weak-coupling) temperature regulation:
     temp0   = 298.00000, tempi   =   0.00000, tautp   =   1.00000

Pressure regulation:
     ntp     =       1
     pres0   =   1.00000, comp    =  44.60000, taup    =   0.50000

SHAKE:
     ntc     =       2, jfastw  =       0
     tol     =   0.00001

Ewald parameters:
     verbose =       0, ew_type =       0, nbflag  =       1, use_pme =       1
     vdwmeth =       1, eedmeth =       1, netfrc  =       1
     Box X =   38.861   Box Y =   34.260   Box Z =   35.723
     Alpha =   90.000   Beta  =   90.000   Gamma =   90.000
     NFFT1 =   40       NFFT2 =   36       NFFT3 =   36
     Cutoff=    8.000   Tol   =0.100E-04
     Ewald Coefficient =  0.34864
     Interpolation order =    4

    LOADING THE CONSTRAINED ATOMS AS GROUPS

   5.  REFERENCE ATOM COORDINATES

  LIG
     Mask !:WAT,HOH,T3P,T4P; matches    28 atoms

--------------------------------------------------------------------------------
   3.  ATOMIC COORDINATES AND VELOCITIES
--------------------------------------------------------------------------------

LIG
 begin time read from input coords =    10.000 ps

 Number of triangulated 3-point waters found:     1086

     Sum of charges from parm topology file =  -0.00200000
     Forcing neutrality...

--------------------------------------------------------------------------------
   4.  RESULTS
 NSTEP =     1500   TIME(PS) =      13.000  TEMP(K) =   292.30  PRESS =  -832.4
 Etot   =     -8136.3955  EKtot   =      1912.7703  EPtot      =    -10049.1658
 BOND   =         5.2953  ANGLE   =         7.7204  DIHED      =         8.1364
 1-4 NB =         9.5205  1-4 EEL =         5.9872  VDWAALS    =      1433.9444
 EELEC  =    -11525.9992  EHBOND  =         0.0000  RESTRAINT  =         6.2291
 EAMBER (non-restraint)  =    -10055.3949
 EKCMT  =       953.1752  VIRIAL  =      1709.1120  VOLUME     =     42061.6066
                                                    Density    =         0.7802
 Ewald error estimate:   0.1550E-03
 ------------------------------------------------------------------------------

      A V E R A G E S   O V E R   15000 S T E P S

 NSTEP =    15000   TIME(PS) =      40.000  TEMP(K) =   297.64  PRESS =  -129.5
 Etot   =     -8323.1489  EKtot   =      1947.6803  EPtot      =    -10270.8292
 BOND   =         4.6156  ANGLE   =        10.4549  DIHED      =         9.3353
 1-4 NB =        10.1279  1-4 EEL =         5.9839  VDWAALS    =      1543.7768
 EELEC  =    -11862.2183  EHBOND  =         0.0000  RESTRAINT  =         7.0947
 EAMBER (non-restraint)  =    -10277.9239
 EKCMT  =       968.5046  VIRIAL  =      1080.8899  VOLUME     =     35495.2624
                                                    Density    =         0.9337
 Ewald error estimate:   0.1634E-03
 ------------------------------------------------------------------------------

      R M S  F L U C T U A T I O N S

 NSTEP =    15000   TIME(PS) =      40.000  TEMP(K) =     4.39  PRESS =   314.1
 Etot   =       107.0313  EKtot   =        28.7294  EPtot      =       117.1564
 BOND   =         1.5056  ANGLE   =         2.0185  DIHED      =         0.9726
 1-4 NB =         1.0691  1-4 EEL =         0.2336  VDWAALS    =        41.5695
 EELEC  =       128.3063  EHBOND  =         0.0000  RESTRAINT  =         1.6441
 EAMBER (non-restraint)  =       115.5123
 EKCMT  =        22.6140  VIRIAL  =       254.2145  VOLUME     =      3802.3590
                                                    Density    =         0.0859
 Ewald error estimate:   0.1229E-03
 ------------------------------------------------------------------------------
