-------------------------------------------------------
          Amber 16 SANDER                              2016
          -------------------------------------------------------

  [-O]verwriting output

File Assignments:

 Here is the input file:

constant temperature
&cntrl
ntxo=1,
imin = 0, nstlim = 4000, irest = 1, ntx = 5, dt = 0.002,
ntt = 1, temp0 = 300.0, tautp = 1.0,
ntb = 1,
ntc = 2, ntf = 2,
ioutfm = 1, iwrap = 1,
ntwe = 800, ntwx = 800, ntpr = 400,
ntr = 1, restraint_wt = 10.00,
restraintmask="!:WAT,HOH,T3P,T4P",
/

--------------------------------------------------------------------------------
   1.  RESOURCE   USE:
--------------------------------------------------------------------------------

 getting new box info from bottom of inpcrd

 NATOM  =    3235 NTYPES =       8 NBONH =    3221 MBONA  =      15
 NTHETH =      34 MTHETA =      20 NPHIH =      68 MPHIA  =      40
 NHPARM =       0 NPARM  =       0 NNB   =    4442 NRES   =    1070
 NBONA  =      15 NTHETA =      20 NPHIA =      40 NUMBND =       9
 NUMANG =      11 NPTRA  =      12 NATYP =       8 NPHB   =       1
 IFBOX  =       1 NMXRS  =      28 IFCAP =       0 NEXTRA =       0
 NCOPY  =       0

     BOX TYPE: RECTILINEAR

--------------------------------------------------------------------------------
   2.  CONTROL  DATA  FOR  THE  RUN
--------------------------------------------------------------------------------

LIG

General flags:
     imin    =       0, nmropt  =       0

Nature and format of input:
     ntx     =       5, irest   =       1, ntrx    =       1

Nature and format of output:
     ntxo    =       1, ntpr    =     400, ntrx    =       1, ntwr    =    4000
     iwrap   =       1, ntwx    =     800, ntwv    =       0, ntwe    =     800
     ioutfm  =       1, ntwprt  =       0, idecomp =       0, rbornstat=      0

Potential function:
     ntf     =       2, ntb     =       1, igb     =       0, nsnb    =      25
     ipol    =       0, gbsa    =       0, iesp    =       0
     dielc   =   1.00000, cut     =   8.00000, intdiel =   1.00000

Frozen or restrained atoms:
     ibelly  =       0, ntr     =       1
     restraint_wt =  10.00000

Molecular dynamics:
     nstlim  =      4000, nscm    =         0, nrespa  =         1
     t       =   0.00000, dt      =   0.00200, vlimit  =  20.00000

Berendsen (weak-coupling) temperature regulation:
     temp0   = 300.00000, tempi   =   0.00000, tautp   =   1.00000

SHAKE:
     ntc     =       2, jfastw  =       0
     tol     =   0.00001

Ewald parameters:
     verbose =       0, ew_type =       0, nbflag  =       1, use_pme =       1
     vdwmeth =       1, eedmeth =       1, netfrc  =       1
     Box X =   38.861   Box Y =   35.267   Box Z =   34.680
     Alpha =   90.000   Beta  =   90.000   Gamma =   90.000
     NFFT1 =   40       NFFT2 =   36       NFFT3 =   36
     Cutoff=    8.000   Tol   =0.100E-04
     Ewald Coefficient =  0.34864
     Interpolation order =    4

    LOADING THE CONSTRAINED ATOMS AS GROUPS

   5.  REFERENCE ATOM COORDINATES

  LIG
     Mask !:WAT,HOH,T3P,T4P; matches    28 atoms

--------------------------------------------------------------------------------
   3.  ATOMIC COORDINATES AND VELOCITIES
--------------------------------------------------------------------------------

LIG
 begin time read from input coords =     2.000 ps

 Number of triangulated 3-point waters found:     1069

     Sum of charges from parm topology file =   0.00000000
     Forcing neutrality...

--------------------------------------------------------------------------------
   4.  RESULTS
 NSTEP =      400   TIME(PS) =       2.800  TEMP(K) =   202.07  PRESS =     0.0
 Etot   =     -9523.4657  EKtot   =      1301.8016  EPtot      =    -10825.2673
 BOND   =         1.6087  ANGLE   =         5.9055  DIHED      =         8.9608
 1-4 NB =         8.5872  1-4 EEL =         3.3347  VDWAALS    =      1924.7247
 EELEC  =    -12782.3516  EHBOND  =         0.0000  RESTRAINT  =         3.9626
 EAMBER (non-restraint)  =    -10829.2299
 Ewald error estimate:   0.3300E-03
 ------------------------------------------------------------------------------

      A V E R A G E S   O V E R    4000 S T E P S

 NSTEP =     4000   TIME(PS) =      10.000  TEMP(K) =   257.62  PRESS =     0.0
 Etot   =     -8583.4899  EKtot   =      1659.7398  EPtot      =    -10243.2297
 BOND   =         2.7751  ANGLE   =         6.2794  DIHED      =         8.8273
 1-4 NB =         9.3756  1-4 EEL =         3.3922  VDWAALS    =      1671.9198
 EELEC  =    -11950.4478  EHBOND  =         0.0000  RESTRAINT  =         4.6486
 EAMBER (non-restraint)  =    -10247.8784
 Ewald error estimate:   0.1479E-03
 ------------------------------------------------------------------------------

      R M S  F L U C T U A T I O N S

 NSTEP =     4000   TIME(PS) =      10.000  TEMP(K) =    31.69  PRESS =     0.0
 Etot   =       582.4780  EKtot   =       204.1576  EPtot      =       381.6808
 BOND   =         1.0416  ANGLE   =         1.3801  DIHED      =         0.4404
 1-4 NB =         0.7691  1-4 EEL =         0.1797  VDWAALS    =       151.8754
 EELEC  =       527.6717  EHBOND  =         0.0000  RESTRAINT  =         1.2572
 EAMBER (non-restraint)  =       380.4235
 Ewald error estimate:   0.1060E-03
 ------------------------------------------------------------------------------
