-------------------------------------------------------
          Amber 16 SANDER                              2016
          -------------------------------------------------------

  [-O]verwriting output

File Assignments:

 Here is the input file:

constant temperature
&cntrl
ntxo=1,
imin = 0, nstlim = 4000, irest = 1, ntx = 5, dt = 0.002,
ntt = 1, temp0 = 300.0, tautp = 1.0,
ntb = 1,
ntc = 2, ntf = 2,
ioutfm = 1, iwrap = 1,
ntwe = 800, ntwx = 800, ntpr = 400,
ntr = 1, restraint_wt = 10.00,
restraintmask="!:CYC",
/

--------------------------------------------------------------------------------
   1.  RESOURCE   USE:
--------------------------------------------------------------------------------

 getting new box info from bottom of inpcrd

 NATOM  =    3592 NTYPES =       4 NBONH =    2392 MBONA  =    1201
 NTHETH =    5978 MTHETA =    1204 NPHIH =    9573 MPHIA  =    3597
 NHPARM =       0 NPARM  =       0 NNB   =   21154 NRES   =     199
 NBONA  =    1201 NTHETA =    1204 NPHIA =    3597 NUMBND =       5
 NUMANG =       8 NPTRA  =       9 NATYP =       4 NPHB   =       0
 IFBOX  =       1 NMXRS  =      28 IFCAP =       0 NEXTRA =       0
 NCOPY  =       0

     BOX TYPE: RECTILINEAR

--------------------------------------------------------------------------------
   2.  CONTROL  DATA  FOR  THE  RUN
--------------------------------------------------------------------------------

LIG

General flags:
     imin    =       0, nmropt  =       0

Nature and format of input:
     ntx     =       5, irest   =       1, ntrx    =       1

Nature and format of output:
     ntxo    =       1, ntpr    =     400, ntrx    =       1, ntwr    =    4000
     iwrap   =       1, ntwx    =     800, ntwv    =       0, ntwe    =     800
     ioutfm  =       1, ntwprt  =       0, idecomp =       0, rbornstat=      0

Potential function:
     ntf     =       2, ntb     =       1, igb     =       0, nsnb    =      25
     ipol    =       0, gbsa    =       0, iesp    =       0
     dielc   =   1.00000, cut     =   8.00000, intdiel =   1.00000

Frozen or restrained atoms:
     ibelly  =       0, ntr     =       1
     restraint_wt =  10.00000

Molecular dynamics:
     nstlim  =      4000, nscm    =         0, nrespa  =         1
     t       =   0.00000, dt      =   0.00200, vlimit  =  20.00000

Berendsen (weak-coupling) temperature regulation:
     temp0   = 300.00000, tempi   =   0.00000, tautp   =   1.00000

SHAKE:
     ntc     =       2, jfastw  =       0
     tol     =   0.00001

Ewald parameters:
     verbose =       0, ew_type =       0, nbflag  =       1, use_pme =       1
     vdwmeth =       1, eedmeth =       1, netfrc  =       1
     Box X =   54.510   Box Y =   36.369   Box Z =   38.420
     Alpha =   90.000   Beta  =   90.000   Gamma =   90.000
     NFFT1 =   54       NFFT2 =   36       NFFT3 =   40
     Cutoff=    8.000   Tol   =0.100E-04
     Ewald Coefficient =  0.34864
     Interpolation order =    4

    LOADING THE CONSTRAINED ATOMS AS GROUPS

   5.  REFERENCE ATOM COORDINATES

  LIG
     Mask !:CYC; matches    28 atoms

--------------------------------------------------------------------------------
   3.  ATOMIC COORDINATES AND VELOCITIES
--------------------------------------------------------------------------------

LIG
 begin time read from input coords =     2.000 ps

 Number of triangulated 3-point waters found:        0

     Sum of charges from parm topology file =   0.00000000
     Forcing neutrality...

--------------------------------------------------------------------------------
   4.  RESULTS
 NSTEP =      400   TIME(PS) =       2.800  TEMP(K) =   213.04  PRESS =     0.0
 Etot   =      2865.2294  EKtot   =      1774.6968  EPtot      =      1090.5325
 BOND   =        98.4410  ANGLE   =       355.2476  DIHED      =       680.0928
 1-4 NB =       505.2249  1-4 EEL =      -158.3945  VDWAALS    =      -666.6477
 EELEC  =       273.6321  EHBOND  =         0.0000  RESTRAINT  =         2.9363
 EAMBER (non-restraint)  =      1087.5963
 Ewald error estimate:   0.1469E-03
 ------------------------------------------------------------------------------

      A V E R A G E S   O V E R    4000 S T E P S

 NSTEP =     4000   TIME(PS) =      10.000  TEMP(K) =   263.19  PRESS =     0.0
 Etot   =      3848.2299  EKtot   =      2192.4491  EPtot      =      1655.7808
 BOND   =       185.4855  ANGLE   =       730.8212  DIHED      =       748.3741
 1-4 NB =       542.5499  1-4 EEL =      -156.7210  VDWAALS    =      -671.8074
 EELEC  =       272.6999  EHBOND  =         0.0000  RESTRAINT  =         4.3787
 EAMBER (non-restraint)  =      1651.4021
 Ewald error estimate:   0.1442E-03
 ------------------------------------------------------------------------------

      R M S  F L U C T U A T I O N S

 NSTEP =     4000   TIME(PS) =      10.000  TEMP(K) =    30.32  PRESS =     0.0
 Etot   =       616.9694  EKtot   =       252.5952  EPtot      =       375.2766
 BOND   =        63.9157  ANGLE   =       250.6273  DIHED      =        41.8113
 1-4 NB =        21.4887  1-4 EEL =         1.6921  VDWAALS    =        12.1275
 EELEC  =         0.9503  EHBOND  =         0.0000  RESTRAINT  =         1.7814
 EAMBER (non-restraint)  =       373.4952
 Ewald error estimate:   0.8426E-04
 ------------------------------------------------------------------------------
