-------------------------------------------------------
          Amber 16 SANDER                              2016
          -------------------------------------------------------

  [-O]verwriting output

File Assignments:

 Here is the input file:

constant temperature
&cntrl
ntxo=1,
imin = 0, nstlim = 4000, irest = 1, ntx = 5, dt = 0.002,
ntt = 1, temp0 = 300.0, tautp = 1.0,
ntb = 1,
ntc = 2, ntf = 2,
ioutfm = 1, iwrap = 1,
ntwe = 800, ntwx = 800, ntpr = 400,
ntr = 1, restraint_wt = 10.00,
restraintmask="!:CYC",
/

--------------------------------------------------------------------------------
   1.  RESOURCE   USE:
--------------------------------------------------------------------------------

 getting new box info from bottom of inpcrd

 NATOM  =    3772 NTYPES =       6 NBONH =    2510 MBONA  =    1263
 NTHETH =    6274 MTHETA =    1268 NPHIH =   10052 MPHIA  =    3784
 NHPARM =       0 NPARM  =       0 NNB   =   22211 NRES   =     209
 NBONA  =    1263 NTHETA =    1268 NPHIA =    3784 NUMBND =       7
 NUMANG =      11 NPTRA  =      12 NATYP =       6 NPHB   =       0
 IFBOX  =       1 NMXRS  =      28 IFCAP =       0 NEXTRA =       0
 NCOPY  =       0

     BOX TYPE: RECTILINEAR

--------------------------------------------------------------------------------
   2.  CONTROL  DATA  FOR  THE  RUN
--------------------------------------------------------------------------------

LIG

General flags:
     imin    =       0, nmropt  =       0

Nature and format of input:
     ntx     =       5, irest   =       1, ntrx    =       1

Nature and format of output:
     ntxo    =       1, ntpr    =     400, ntrx    =       1, ntwr    =    4000
     iwrap   =       1, ntwx    =     800, ntwv    =       0, ntwe    =     800
     ioutfm  =       1, ntwprt  =       0, idecomp =       0, rbornstat=      0

Potential function:
     ntf     =       2, ntb     =       1, igb     =       0, nsnb    =      25
     ipol    =       0, gbsa    =       0, iesp    =       0
     dielc   =   1.00000, cut     =   8.00000, intdiel =   1.00000

Frozen or restrained atoms:
     ibelly  =       0, ntr     =       1
     restraint_wt =  10.00000

Molecular dynamics:
     nstlim  =      4000, nscm    =         0, nrespa  =         1
     t       =   0.00000, dt      =   0.00200, vlimit  =  20.00000

Berendsen (weak-coupling) temperature regulation:
     temp0   = 300.00000, tempi   =   0.00000, tautp   =   1.00000

SHAKE:
     ntc     =       2, jfastw  =       0
     tol     =   0.00001

Ewald parameters:
     verbose =       0, ew_type =       0, nbflag  =       1, use_pme =       1
     vdwmeth =       1, eedmeth =       1, netfrc  =       1
     Box X =   40.882   Box Y =   50.917   Box Z =   38.420
     Alpha =   90.000   Beta  =   90.000   Gamma =   90.000
     NFFT1 =   40       NFFT2 =   50       NFFT3 =   40
     Cutoff=    8.000   Tol   =0.100E-04
     Ewald Coefficient =  0.34864
     Interpolation order =    4

    LOADING THE CONSTRAINED ATOMS AS GROUPS

   5.  REFERENCE ATOM COORDINATES

  LIG
     Mask !:CYC; matches    28 atoms

--------------------------------------------------------------------------------
   3.  ATOMIC COORDINATES AND VELOCITIES
--------------------------------------------------------------------------------

LIG
 begin time read from input coords =     2.000 ps

 Number of triangulated 3-point waters found:        0

     Sum of charges from parm topology file =  -0.00200000
     Forcing neutrality...

--------------------------------------------------------------------------------
   4.  RESULTS
 NSTEP =      400   TIME(PS) =       2.800  TEMP(K) =   214.36  PRESS =     0.0
 Etot   =      3012.3851  EKtot   =      1875.5412  EPtot      =      1136.8439
 BOND   =        98.2130  ANGLE   =       375.8274  DIHED      =       708.1049
 1-4 NB =       534.7663  1-4 EEL =      -163.4019  VDWAALS    =      -707.2707
 EELEC  =       288.7709  EHBOND  =         0.0000  RESTRAINT  =         1.8341
 EAMBER (non-restraint)  =      1135.0098
 Ewald error estimate:   0.3027E-04
 ------------------------------------------------------------------------------

      A V E R A G E S   O V E R    4000 S T E P S

 NSTEP =     4000   TIME(PS) =      10.000  TEMP(K) =   263.11  PRESS =     0.0
 Etot   =      4054.3405  EKtot   =      2302.1520  EPtot      =      1752.1885
 BOND   =       199.2225  ANGLE   =       783.7136  DIHED      =       779.2848
 1-4 NB =       568.2386  1-4 EEL =      -161.1601  VDWAALS    =      -709.2050
 EELEC  =       287.4113  EHBOND  =         0.0000  RESTRAINT  =         4.6830
 EAMBER (non-restraint)  =      1747.5056
 Ewald error estimate:   0.1131E-03
 ------------------------------------------------------------------------------

      R M S  F L U C T U A T I O N S

 NSTEP =     4000   TIME(PS) =      10.000  TEMP(K) =    31.01  PRESS =     0.0
 Etot   =       651.0233  EKtot   =       271.3363  EPtot      =       389.1548
 BOND   =        68.8925  ANGLE   =       274.6105  DIHED      =        38.5853
 1-4 NB =        22.0496  1-4 EEL =         1.4451  VDWAALS    =        17.5725
 EELEC  =         0.8038  EHBOND  =         0.0000  RESTRAINT  =         2.3243
 EAMBER (non-restraint)  =       386.8305
 Ewald error estimate:   0.8027E-04
 ------------------------------------------------------------------------------
