-------------------------------------------------------
          Amber 16 SANDER                              2016
          -------------------------------------------------------

  [-O]verwriting output

File Assignments:

 Here is the input file:

md with sander
&cntrl
ntxo=1,
imin = 0, nstlim = 15000, irest = 1, ntx = 5, dt = 0.002,
ntt = 1, temp0 = 298.0, tautp = 1.0,
ntp = 1, pres0 = 1.0, taup = 0.5,
ntb = 2,
ntc = 2, ntf = 2,
ioutfm = 1, iwrap = 1,
ntwe = 3000, ntwx = 3000, ntpr = 1500,
ntr = 1, restraint_wt = 10.00,
restraintmask="!:CYC",
/

--------------------------------------------------------------------------------
   1.  RESOURCE   USE:
--------------------------------------------------------------------------------

 getting new box info from bottom of inpcrd

 NATOM  =    3772 NTYPES =       6 NBONH =    2510 MBONA  =    1263
 NTHETH =    6274 MTHETA =    1268 NPHIH =   10052 MPHIA  =    3784
 NHPARM =       0 NPARM  =       0 NNB   =   22211 NRES   =     209
 NBONA  =    1263 NTHETA =    1268 NPHIA =    3784 NUMBND =       7
 NUMANG =      11 NPTRA  =      12 NATYP =       6 NPHB   =       0
 IFBOX  =       1 NMXRS  =      28 IFCAP =       0 NEXTRA =       0
 NCOPY  =       0

     BOX TYPE: RECTILINEAR

--------------------------------------------------------------------------------
   2.  CONTROL  DATA  FOR  THE  RUN
--------------------------------------------------------------------------------

LIG

General flags:
     imin    =       0, nmropt  =       0

Nature and format of input:
     ntx     =       5, irest   =       1, ntrx    =       1

Nature and format of output:
     ntxo    =       1, ntpr    =    1500, ntrx    =       1, ntwr    =   15000
     iwrap   =       1, ntwx    =    3000, ntwv    =       0, ntwe    =    3000
     ioutfm  =       1, ntwprt  =       0, idecomp =       0, rbornstat=      0

Potential function:
     ntf     =       2, ntb     =       2, igb     =       0, nsnb    =      25
     ipol    =       0, gbsa    =       0, iesp    =       0
     dielc   =   1.00000, cut     =   8.00000, intdiel =   1.00000

Frozen or restrained atoms:
     ibelly  =       0, ntr     =       1
     restraint_wt =  10.00000

Molecular dynamics:
     nstlim  =     15000, nscm    =         0, nrespa  =         1
     t       =   0.00000, dt      =   0.00200, vlimit  =  20.00000

Berendsen (weak-coupling) temperature regulation:
     temp0   = 298.00000, tempi   =   0.00000, tautp   =   1.00000

Pressure regulation:
     ntp     =       1
     pres0   =   1.00000, comp    =  44.60000, taup    =   0.50000

SHAKE:
     ntc     =       2, jfastw  =       0
     tol     =   0.00001

Ewald parameters:
     verbose =       0, ew_type =       0, nbflag  =       1, use_pme =       1
     vdwmeth =       1, eedmeth =       1, netfrc  =       1
     Box X =   40.882   Box Y =   50.917   Box Z =   38.420
     Alpha =   90.000   Beta  =   90.000   Gamma =   90.000
     NFFT1 =   40       NFFT2 =   50       NFFT3 =   40
     Cutoff=    8.000   Tol   =0.100E-04
     Ewald Coefficient =  0.34864
     Interpolation order =    4

    LOADING THE CONSTRAINED ATOMS AS GROUPS

   5.  REFERENCE ATOM COORDINATES

  LIG
     Mask !:CYC; matches    28 atoms

--------------------------------------------------------------------------------
   3.  ATOMIC COORDINATES AND VELOCITIES
--------------------------------------------------------------------------------

LIG
 begin time read from input coords =    10.000 ps

 Number of triangulated 3-point waters found:        0

     Sum of charges from parm topology file =  -0.00200000
     Forcing neutrality...

--------------------------------------------------------------------------------
   4.  RESULTS
 NSTEP =     1500   TIME(PS) =      13.000  TEMP(K) =   293.73  PRESS =   212.3
 Etot   =      4963.3073  EKtot   =      2569.9779  EPtot      =      2393.3294
 BOND   =       305.6829  ANGLE   =      1276.9561  DIHED      =       787.3561
 1-4 NB =       588.2188  1-4 EEL =      -161.8332  VDWAALS    =      -699.2850
 EELEC  =       288.3684  EHBOND  =         0.0000  RESTRAINT  =         7.8654
 EAMBER (non-restraint)  =      2385.4640
 EKCMT  =       393.6030  VIRIAL  =        11.7828  VOLUME     =     83295.7096
                                                    Density    =         0.3529
 Ewald error estimate:   0.1936E-03
 ------------------------------------------------------------------------------

      A V E R A G E S   O V E R   15000 S T E P S

 NSTEP =    15000   TIME(PS) =      40.000  TEMP(K) =   296.23  PRESS =   -58.0
 Etot   =      5131.4580  EKtot   =      2591.8642  EPtot      =      2539.5938
 BOND   =       355.0375  ANGLE   =      1502.8503  DIHED      =       769.8685
 1-4 NB =       583.4250  1-4 EEL =      -161.5245  VDWAALS    =      -804.1679
 EELEC  =       288.1927  EHBOND  =         0.0000  RESTRAINT  =         5.9121
 EAMBER (non-restraint)  =      2533.6817
 EKCMT  =       308.5791  VIRIAL  =       401.1560  VOLUME     =     80339.4492
                                                    Density    =         0.3671
 Ewald error estimate:   0.1551E-03
 ------------------------------------------------------------------------------

      R M S  F L U C T U A T I O N S

 NSTEP =    15000   TIME(PS) =      40.000  TEMP(K) =     3.81  PRESS =   139.7
 Etot   =        98.4515  EKtot   =        33.2979  EPtot      =        84.7260
 BOND   =        25.7578  ANGLE   =       127.9344  DIHED      =        16.1358
 1-4 NB =         9.0038  1-4 EEL =         1.2776  VDWAALS    =        81.1312
 EELEC  =         0.8077  EHBOND  =         0.0000  RESTRAINT  =         1.5989
 EAMBER (non-restraint)  =        83.1271
 EKCMT  =        56.1924  VIRIAL  =       195.4387  VOLUME     =      4587.1947
                                                    Density    =         0.0223
 Ewald error estimate:   0.8829E-04
 ------------------------------------------------------------------------------
