-------------------------------------------------------
          Amber 16 SANDER                              2016
          -------------------------------------------------------

  [-O]verwriting output

File Assignments:

 Here is the input file:

md with sander
&cntrl
ntxo=1,
imin = 0, nstlim = 15000, irest = 1, ntx = 5, dt = 0.002,
ntt = 1, temp0 = 298.0, tautp = 1.0,
ntp = 1, pres0 = 1.0, taup = 0.5,
ntb = 2,
ntc = 2, ntf = 2,
ioutfm = 1, iwrap = 1,
ntwe = 3000, ntwx = 3000, ntpr = 1500,
ntr = 1, restraint_wt = 10.00,
restraintmask="!:WAT,HOH,T3P,T4P",
/

--------------------------------------------------------------------------------
   1.  RESOURCE   USE:
--------------------------------------------------------------------------------

 getting new box info from bottom of inpcrd

 NATOM  =    3340 NTYPES =       8 NBONH =    3326 MBONA  =      15
 NTHETH =      34 MTHETA =      20 NPHIH =      68 MPHIA  =      40
 NHPARM =       0 NPARM  =       0 NNB   =    4580 NRES   =    1105
 NBONA  =      15 NTHETA =      20 NPHIA =      40 NUMBND =       9
 NUMANG =      11 NPTRA  =      12 NATYP =       8 NPHB   =       1
 IFBOX  =       1 NMXRS  =      28 IFCAP =       0 NEXTRA =       0
 NCOPY  =       0

     BOX TYPE: RECTILINEAR

--------------------------------------------------------------------------------
   2.  CONTROL  DATA  FOR  THE  RUN
--------------------------------------------------------------------------------

LIG

General flags:
     imin    =       0, nmropt  =       0

Nature and format of input:
     ntx     =       5, irest   =       1, ntrx    =       1

Nature and format of output:
     ntxo    =       1, ntpr    =    1500, ntrx    =       1, ntwr    =   15000
     iwrap   =       1, ntwx    =    3000, ntwv    =       0, ntwe    =    3000
     ioutfm  =       1, ntwprt  =       0, idecomp =       0, rbornstat=      0

Potential function:
     ntf     =       2, ntb     =       2, igb     =       0, nsnb    =      25
     ipol    =       0, gbsa    =       0, iesp    =       0
     dielc   =   1.00000, cut     =   8.00000, intdiel =   1.00000

Frozen or restrained atoms:
     ibelly  =       0, ntr     =       1
     restraint_wt =  10.00000

Molecular dynamics:
     nstlim  =     15000, nscm    =         0, nrespa  =         1
     t       =   0.00000, dt      =   0.00200, vlimit  =  20.00000

Berendsen (weak-coupling) temperature regulation:
     temp0   = 298.00000, tempi   =   0.00000, tautp   =   1.00000

Pressure regulation:
     ntp     =       1
     pres0   =   1.00000, comp    =  44.60000, taup    =   0.50000

SHAKE:
     ntc     =       2, jfastw  =       0
     tol     =   0.00001

Ewald parameters:
     verbose =       0, ew_type =       0, nbflag  =       1, use_pme =       1
     vdwmeth =       1, eedmeth =       1, netfrc  =       1
     Box X =   36.005   Box Y =   35.267   Box Z =   38.379
     Alpha =   90.000   Beta  =   90.000   Gamma =   90.000
     NFFT1 =   36       NFFT2 =   36       NFFT3 =   40
     Cutoff=    8.000   Tol   =0.100E-04
     Ewald Coefficient =  0.34864
     Interpolation order =    4

    LOADING THE CONSTRAINED ATOMS AS GROUPS

   5.  REFERENCE ATOM COORDINATES

  LIG
     Mask !:WAT,HOH,T3P,T4P; matches    28 atoms

--------------------------------------------------------------------------------
   3.  ATOMIC COORDINATES AND VELOCITIES
--------------------------------------------------------------------------------

LIG
 begin time read from input coords =    10.000 ps

 Number of triangulated 3-point waters found:     1104

     Sum of charges from parm topology file =   0.00000000
     Forcing neutrality...

--------------------------------------------------------------------------------
   4.  RESULTS
 NSTEP =     1500   TIME(PS) =      13.000  TEMP(K) =   290.61  PRESS =  -767.3
 Etot   =     -8275.2317  EKtot   =      1932.8842  EPtot      =    -10208.1159
 BOND   =         3.2351  ANGLE   =         6.1038  DIHED      =         5.8924
 1-4 NB =         7.1319  1-4 EEL =         4.0165  VDWAALS    =      1453.6561
 EELEC  =    -11690.6595  EHBOND  =         0.0000  RESTRAINT  =         2.5078
 EAMBER (non-restraint)  =    -10210.6237
 EKCMT  =       983.1831  VIRIAL  =      1697.5792  VOLUME     =     43120.0587
                                                    Density    =         0.7735
 Ewald error estimate:   0.4031E-03
 ------------------------------------------------------------------------------

      A V E R A G E S   O V E R   15000 S T E P S

 NSTEP =    15000   TIME(PS) =      40.000  TEMP(K) =   297.70  PRESS =  -136.0
 Etot   =     -8476.3353  EKtot   =      1980.0708  EPtot      =    -10456.4060
 BOND   =         4.0554  ANGLE   =         8.4974  DIHED      =         6.1903
 1-4 NB =         7.8453  1-4 EEL =         4.2647  VDWAALS    =      1562.5091
 EELEC  =    -12053.9497  EHBOND  =         0.0000  RESTRAINT  =         4.1815
 EAMBER (non-restraint)  =    -10460.5875
 EKCMT  =       985.1983  VIRIAL  =      1105.0862  VOLUME     =     36119.2082
                                                    Density    =         0.9334
 Ewald error estimate:   0.1641E-03
 ------------------------------------------------------------------------------

      R M S  F L U C T U A T I O N S

 NSTEP =    15000   TIME(PS) =      40.000  TEMP(K) =     4.34  PRESS =   313.3
 Etot   =       115.8323  EKtot   =        28.8916  EPtot      =       125.9033
 BOND   =         1.4016  ANGLE   =         1.7170  DIHED      =         0.8395
 1-4 NB =         0.6621  1-4 EEL =         0.1829  VDWAALS    =        42.3003
 EELEC  =       137.2671  EHBOND  =         0.0000  RESTRAINT  =         1.2499
 EAMBER (non-restraint)  =       124.6535
 EKCMT  =        22.4053  VIRIAL  =       258.1493  VOLUME     =      4044.0494
                                                    Density    =         0.0892
 Ewald error estimate:   0.1223E-03
 ------------------------------------------------------------------------------
