-------------------------------------------------------
          Amber 16 SANDER                              2016
          -------------------------------------------------------

  [-O]verwriting output

File Assignments:

 Here is the input file:

constant temperature
&cntrl
ntxo=1,
imin = 0, nstlim = 4000, irest = 1, ntx = 5, dt = 0.002,
ntt = 1, temp0 = 300.0, tautp = 1.0,
ntb = 1,
ntc = 2, ntf = 2,
ioutfm = 1, iwrap = 1,
ntwe = 800, ntwx = 800, ntpr = 400,
ntr = 1, restraint_wt = 10.00,
restraintmask="!:WAT,HOH,T3P,T4P",
/

--------------------------------------------------------------------------------
   1.  RESOURCE   USE:
--------------------------------------------------------------------------------

 getting new box info from bottom of inpcrd

 NATOM  =    2980 NTYPES =       4 NBONH =    2968 MBONA  =      13
 NTHETH =      20 MTHETA =      16 NPHIH =      42 MPHIA  =      20
 NHPARM =       0 NPARM  =       0 NNB   =    4052 NRES   =     987
 NBONA  =      13 NTHETA =      16 NPHIA =      20 NUMBND =       6
 NUMANG =       6 NPTRA  =       3 NATYP =       5 NPHB   =       1
 IFBOX  =       1 NMXRS  =      22 IFCAP =       0 NEXTRA =       0
 NCOPY  =       0

     BOX TYPE: RECTILINEAR

--------------------------------------------------------------------------------
   2.  CONTROL  DATA  FOR  THE  RUN
--------------------------------------------------------------------------------

LIG

General flags:
     imin    =       0, nmropt  =       0

Nature and format of input:
     ntx     =       5, irest   =       1, ntrx    =       1

Nature and format of output:
     ntxo    =       1, ntpr    =     400, ntrx    =       1, ntwr    =    4000
     iwrap   =       1, ntwx    =     800, ntwv    =       0, ntwe    =     800
     ioutfm  =       1, ntwprt  =       0, idecomp =       0, rbornstat=      0

Potential function:
     ntf     =       2, ntb     =       1, igb     =       0, nsnb    =      25
     ipol    =       0, gbsa    =       0, iesp    =       0
     dielc   =   1.00000, cut     =   8.00000, intdiel =   1.00000

Frozen or restrained atoms:
     ibelly  =       0, ntr     =       1
     restraint_wt =  10.00000

Molecular dynamics:
     nstlim  =      4000, nscm    =         0, nrespa  =         1
     t       =   0.00000, dt      =   0.00200, vlimit  =  20.00000

Berendsen (weak-coupling) temperature regulation:
     temp0   = 300.00000, tempi   =   0.00000, tautp   =   1.00000

SHAKE:
     ntc     =       2, jfastw  =       0
     tol     =   0.00001

Ewald parameters:
     verbose =       0, ew_type =       0, nbflag  =       1, use_pme =       1
     vdwmeth =       1, eedmeth =       1, netfrc  =       1
     Box X =   39.456   Box Y =   34.260   Box Z =   32.993
     Alpha =   90.000   Beta  =   90.000   Gamma =   90.000
     NFFT1 =   40       NFFT2 =   36       NFFT3 =   32
     Cutoff=    8.000   Tol   =0.100E-04
     Ewald Coefficient =  0.34864
     Interpolation order =    4

    LOADING THE CONSTRAINED ATOMS AS GROUPS

   5.  REFERENCE ATOM COORDINATES

  LIG
     Mask !:WAT,HOH,T3P,T4P; matches    22 atoms

--------------------------------------------------------------------------------
   3.  ATOMIC COORDINATES AND VELOCITIES
--------------------------------------------------------------------------------

LIG
 begin time read from input coords =     2.000 ps

 Number of triangulated 3-point waters found:      986

     Sum of charges from parm topology file =   0.00000000
     Forcing neutrality...

--------------------------------------------------------------------------------
   4.  RESULTS
 NSTEP =      400   TIME(PS) =       2.800  TEMP(K) =   202.16  PRESS =     0.0
 Etot   =     -8789.4647  EKtot   =      1199.5726  EPtot      =     -9989.0373
 BOND   =         1.8784  ANGLE   =         1.1456  DIHED      =         7.4849
 1-4 NB =         8.6328  1-4 EEL =         3.7858  VDWAALS    =      1790.4962
 EELEC  =    -11805.2830  EHBOND  =         0.0000  RESTRAINT  =         2.8220
 EAMBER (non-restraint)  =     -9991.8593
 Ewald error estimate:   0.2544E-03
 ------------------------------------------------------------------------------

      A V E R A G E S   O V E R    4000 S T E P S

 NSTEP =     4000   TIME(PS) =      10.000  TEMP(K) =   257.93  PRESS =     0.0
 Etot   =     -7920.4998  EKtot   =      1530.4775  EPtot      =     -9450.9773
 BOND   =         2.5244  ANGLE   =         3.0885  DIHED      =         7.6871
 1-4 NB =         7.2896  1-4 EEL =         3.7058  VDWAALS    =      1532.3217
 EELEC  =    -11010.4669  EHBOND  =         0.0000  RESTRAINT  =         2.8726
 EAMBER (non-restraint)  =     -9453.8499
 Ewald error estimate:   0.1584E-03
 ------------------------------------------------------------------------------

      R M S  F L U C T U A T I O N S

 NSTEP =     4000   TIME(PS) =      10.000  TEMP(K) =    32.16  PRESS =     0.0
 Etot   =       534.5720  EKtot   =       190.8321  EPtot      =       346.6762
 BOND   =         1.1411  ANGLE   =         1.1333  DIHED      =         1.0025
 1-4 NB =         0.6873  1-4 EEL =         0.0858  VDWAALS    =       145.4812
 EELEC  =       486.3212  EHBOND  =         0.0000  RESTRAINT  =         0.9352
 EAMBER (non-restraint)  =       345.7410
 Ewald error estimate:   0.1208E-03
 ------------------------------------------------------------------------------
