-------------------------------------------------------
          Amber 16 SANDER                              2016
          -------------------------------------------------------

  [-O]verwriting output

File Assignments:

 Here is the input file:

md with sander
&cntrl
ntxo=1,
imin = 0, nstlim = 15000, irest = 1, ntx = 5, dt = 0.002,
ntt = 1, temp0 = 298.0, tautp = 1.0,
ntp = 1, pres0 = 1.0, taup = 0.5,
ntb = 2,
ntc = 2, ntf = 2,
ioutfm = 1, iwrap = 1,
ntwe = 3000, ntwx = 3000, ntpr = 1500,
ntr = 1, restraint_wt = 10.00,
restraintmask="!:WAT,HOH,T3P,T4P",
/

--------------------------------------------------------------------------------
   1.  RESOURCE   USE:
--------------------------------------------------------------------------------

 getting new box info from bottom of inpcrd

 NATOM  =    2980 NTYPES =       4 NBONH =    2968 MBONA  =      13
 NTHETH =      20 MTHETA =      16 NPHIH =      42 MPHIA  =      20
 NHPARM =       0 NPARM  =       0 NNB   =    4052 NRES   =     987
 NBONA  =      13 NTHETA =      16 NPHIA =      20 NUMBND =       6
 NUMANG =       6 NPTRA  =       3 NATYP =       5 NPHB   =       1
 IFBOX  =       1 NMXRS  =      22 IFCAP =       0 NEXTRA =       0
 NCOPY  =       0

     BOX TYPE: RECTILINEAR

--------------------------------------------------------------------------------
   2.  CONTROL  DATA  FOR  THE  RUN
--------------------------------------------------------------------------------

LIG

General flags:
     imin    =       0, nmropt  =       0

Nature and format of input:
     ntx     =       5, irest   =       1, ntrx    =       1

Nature and format of output:
     ntxo    =       1, ntpr    =    1500, ntrx    =       1, ntwr    =   15000
     iwrap   =       1, ntwx    =    3000, ntwv    =       0, ntwe    =    3000
     ioutfm  =       1, ntwprt  =       0, idecomp =       0, rbornstat=      0

Potential function:
     ntf     =       2, ntb     =       2, igb     =       0, nsnb    =      25
     ipol    =       0, gbsa    =       0, iesp    =       0
     dielc   =   1.00000, cut     =   8.00000, intdiel =   1.00000

Frozen or restrained atoms:
     ibelly  =       0, ntr     =       1
     restraint_wt =  10.00000

Molecular dynamics:
     nstlim  =     15000, nscm    =         0, nrespa  =         1
     t       =   0.00000, dt      =   0.00200, vlimit  =  20.00000

Berendsen (weak-coupling) temperature regulation:
     temp0   = 298.00000, tempi   =   0.00000, tautp   =   1.00000

Pressure regulation:
     ntp     =       1
     pres0   =   1.00000, comp    =  44.60000, taup    =   0.50000

SHAKE:
     ntc     =       2, jfastw  =       0
     tol     =   0.00001

Ewald parameters:
     verbose =       0, ew_type =       0, nbflag  =       1, use_pme =       1
     vdwmeth =       1, eedmeth =       1, netfrc  =       1
     Box X =   39.456   Box Y =   34.260   Box Z =   32.993
     Alpha =   90.000   Beta  =   90.000   Gamma =   90.000
     NFFT1 =   40       NFFT2 =   36       NFFT3 =   32
     Cutoff=    8.000   Tol   =0.100E-04
     Ewald Coefficient =  0.34864
     Interpolation order =    4

    LOADING THE CONSTRAINED ATOMS AS GROUPS

   5.  REFERENCE ATOM COORDINATES

  LIG
     Mask !:WAT,HOH,T3P,T4P; matches    22 atoms

--------------------------------------------------------------------------------
   3.  ATOMIC COORDINATES AND VELOCITIES
--------------------------------------------------------------------------------

LIG
 begin time read from input coords =    10.000 ps

 Number of triangulated 3-point waters found:      986

     Sum of charges from parm topology file =   0.00000000
     Forcing neutrality...

--------------------------------------------------------------------------------
   4.  RESULTS
 NSTEP =     1500   TIME(PS) =      13.000  TEMP(K) =   292.73  PRESS =  -477.1
 Etot   =     -7381.7399  EKtot   =      1737.0028  EPtot      =     -9118.7426
 BOND   =         3.4583  ANGLE   =         3.0804  DIHED      =         7.6936
 1-4 NB =         6.5759  1-4 EEL =         3.7294  VDWAALS    =      1385.6907
 EELEC  =    -10532.2207  EHBOND  =         0.0000  RESTRAINT  =         3.2497
 EAMBER (non-restraint)  =     -9121.9924
 EKCMT  =       892.7924  VIRIAL  =      1297.0089  VOLUME     =     39238.9482
                                                    Density    =         0.7583
 Ewald error estimate:   0.2208E-04
 ------------------------------------------------------------------------------

      A V E R A G E S   O V E R   15000 S T E P S

 NSTEP =    15000   TIME(PS) =      40.000  TEMP(K) =   297.59  PRESS =  -143.1
 Etot   =     -7577.8552  EKtot   =      1765.8412  EPtot      =     -9343.6964
 BOND   =         3.1803  ANGLE   =         3.6366  DIHED      =         9.1184
 1-4 NB =         7.3042  1-4 EEL =         3.7007  VDWAALS    =      1397.9392
 EELEC  =    -10772.4141  EHBOND  =         0.0000  RESTRAINT  =         3.8383
 EAMBER (non-restraint)  =     -9347.5346
 EKCMT  =       880.8639  VIRIAL  =       995.2962  VOLUME     =     32350.5512
                                                    Density    =         0.9305
 Ewald error estimate:   0.1564E-03
 ------------------------------------------------------------------------------

      R M S  F L U C T U A T I O N S

 NSTEP =    15000   TIME(PS) =      40.000  TEMP(K) =     4.59  PRESS =   330.9
 Etot   =       109.6928  EKtot   =        27.2076  EPtot      =       118.1876
 BOND   =         1.1905  ANGLE   =         1.0245  DIHED      =         1.3262
 1-4 NB =         0.5729  1-4 EEL =         0.1033  VDWAALS    =        38.5241
 EELEC  =       129.9882  EHBOND  =         0.0000  RESTRAINT  =         1.1699
 EAMBER (non-restraint)  =       117.0177
 EKCMT  =        21.3002  VIRIAL  =       249.8536  VOLUME     =      3797.7403
                                                    Density    =         0.0917
 Ewald error estimate:   0.1212E-03
 ------------------------------------------------------------------------------
