-------------------------------------------------------
          Amber 16 SANDER                              2016
          -------------------------------------------------------

  [-O]verwriting output

File Assignments:

 Here is the input file:

md with sander
&cntrl
ntxo=1,
imin = 0, nstlim = 15000, irest = 1, ntx = 5, dt = 0.002,
ntt = 1, temp0 = 298.0, tautp = 1.0,
ntp = 1, pres0 = 1.0, taup = 0.5,
ntb = 2,
ntc = 2, ntf = 2,
ioutfm = 1, iwrap = 1,
ntwe = 3000, ntwx = 3000, ntpr = 1500,
ntr = 1, restraint_wt = 10.00,
restraintmask="!:WAT,HOH,T3P,T4P",
/

--------------------------------------------------------------------------------
   1.  RESOURCE   USE:
--------------------------------------------------------------------------------

 getting new box info from bottom of inpcrd

 NATOM  =    3049 NTYPES =       6 NBONH =    3037 MBONA  =      13
 NTHETH =      38 MTHETA =      16 NPHIH =      69 MPHIA  =      33
 NHPARM =       0 NPARM  =       0 NNB   =    4192 NRES   =    1008
 NBONA  =      13 NTHETA =      16 NPHIA =      33 NUMBND =       7
 NUMANG =       8 NPTRA  =       9 NATYP =       6 NPHB   =       1
 IFBOX  =       1 NMXRS  =      28 IFCAP =       0 NEXTRA =       0
 NCOPY  =       0

     BOX TYPE: RECTILINEAR

--------------------------------------------------------------------------------
   2.  CONTROL  DATA  FOR  THE  RUN
--------------------------------------------------------------------------------

LIG

General flags:
     imin    =       0, nmropt  =       0

Nature and format of input:
     ntx     =       5, irest   =       1, ntrx    =       1

Nature and format of output:
     ntxo    =       1, ntpr    =    1500, ntrx    =       1, ntwr    =   15000
     iwrap   =       1, ntwx    =    3000, ntwv    =       0, ntwe    =    3000
     ioutfm  =       1, ntwprt  =       0, idecomp =       0, rbornstat=      0

Potential function:
     ntf     =       2, ntb     =       2, igb     =       0, nsnb    =      25
     ipol    =       0, gbsa    =       0, iesp    =       0
     dielc   =   1.00000, cut     =   8.00000, intdiel =   1.00000

Frozen or restrained atoms:
     ibelly  =       0, ntr     =       1
     restraint_wt =  10.00000

Molecular dynamics:
     nstlim  =     15000, nscm    =         0, nrespa  =         1
     t       =   0.00000, dt      =   0.00200, vlimit  =  20.00000

Berendsen (weak-coupling) temperature regulation:
     temp0   = 298.00000, tempi   =   0.00000, tautp   =   1.00000

Pressure regulation:
     ntp     =       1
     pres0   =   1.00000, comp    =  44.60000, taup    =   0.50000

SHAKE:
     ntc     =       2, jfastw  =       0
     tol     =   0.00001

Ewald parameters:
     verbose =       0, ew_type =       0, nbflag  =       1, use_pme =       1
     vdwmeth =       1, eedmeth =       1, netfrc  =       1
     Box X =   34.986   Box Y =   37.796   Box Z =   34.954
     Alpha =   90.000   Beta  =   90.000   Gamma =   90.000
     NFFT1 =   36       NFFT2 =   40       NFFT3 =   36
     Cutoff=    8.000   Tol   =0.100E-04
     Ewald Coefficient =  0.34864
     Interpolation order =    4

    LOADING THE CONSTRAINED ATOMS AS GROUPS

   5.  REFERENCE ATOM COORDINATES

  LIG
     Mask !:WAT,HOH,T3P,T4P; matches    28 atoms

--------------------------------------------------------------------------------
   3.  ATOMIC COORDINATES AND VELOCITIES
--------------------------------------------------------------------------------

LIG
 begin time read from input coords =    10.000 ps

 Number of triangulated 3-point waters found:     1007

     Sum of charges from parm topology file =   0.00000000
     Forcing neutrality...

--------------------------------------------------------------------------------
   4.  RESULTS
 NSTEP =     1500   TIME(PS) =      13.000  TEMP(K) =   299.29  PRESS =  -549.9
 Etot   =     -7513.4373  EKtot   =      1816.9358  EPtot      =     -9330.3731
 BOND   =         3.7932  ANGLE   =         4.3438  DIHED      =         5.3481
 1-4 NB =         6.7179  1-4 EEL =         0.5751  VDWAALS    =      1386.2300
 EELEC  =    -10741.4789  EHBOND  =         0.0000  RESTRAINT  =         4.0977
 EAMBER (non-restraint)  =     -9334.4709
 EKCMT  =       897.7125  VIRIAL  =      1387.2376  VOLUME     =     41226.7864
                                                    Density    =         0.7372
 Ewald error estimate:   0.7684E-04
 ------------------------------------------------------------------------------

      A V E R A G E S   O V E R   15000 S T E P S

 NSTEP =    15000   TIME(PS) =      40.000  TEMP(K) =   297.57  PRESS =  -150.8
 Etot   =     -7711.8488  EKtot   =      1806.4986  EPtot      =     -9518.3474
 BOND   =         3.7777  ANGLE   =         9.3516  DIHED      =         5.1225
 1-4 NB =         7.1323  1-4 EEL =         0.5578  VDWAALS    =      1422.2544
 EELEC  =    -10971.0899  EHBOND  =         0.0000  RESTRAINT  =         4.5461
 EAMBER (non-restraint)  =     -9522.8935
 EKCMT  =       900.3980  VIRIAL  =      1024.1651  VOLUME     =     33402.2645
                                                    Density    =         0.9225
 Ewald error estimate:   0.1624E-03
 ------------------------------------------------------------------------------

      R M S  F L U C T U A T I O N S

 NSTEP =    15000   TIME(PS) =      40.000  TEMP(K) =     4.60  PRESS =   322.1
 Etot   =       111.8776  EKtot   =        27.9192  EPtot      =       121.7657
 BOND   =         1.3513  ANGLE   =         1.8030  DIHED      =         0.8303
 1-4 NB =         0.5873  1-4 EEL =         0.0780  VDWAALS    =        40.2777
 EELEC  =       131.9775  EHBOND  =         0.0000  RESTRAINT  =         1.2768
 EAMBER (non-restraint)  =       120.4889
 EKCMT  =        22.7163  VIRIAL  =       245.5820  VOLUME     =      4285.0921
                                                    Density    =         0.0987
 Ewald error estimate:   0.1238E-03
 ------------------------------------------------------------------------------
