-------------------------------------------------------
          Amber 16 SANDER                              2016
          -------------------------------------------------------

  [-O]verwriting output

File Assignments:

 Here is the input file:

constant temperature
&cntrl
ntxo=1,
imin = 0, nstlim = 4000, irest = 1, ntx = 5, dt = 0.002,
ntt = 1, temp0 = 300.0, tautp = 1.0,
ntb = 1,
ntc = 2, ntf = 2,
ioutfm = 1, iwrap = 1,
ntwe = 800, ntwx = 800, ntpr = 400,
ntr = 1, restraint_wt = 10.00,
restraintmask="!:CYC",
/

--------------------------------------------------------------------------------
   1.  RESOURCE   USE:
--------------------------------------------------------------------------------

 getting new box info from bottom of inpcrd

 NATOM  =    3772 NTYPES =       6 NBONH =    2509 MBONA  =    1264
 NTHETH =    6272 MTHETA =    1270 NPHIH =   10052 MPHIA  =    3787
 NHPARM =       0 NPARM  =       0 NNB   =   22211 NRES   =     209
 NBONA  =    1264 NTHETA =    1270 NPHIA =    3787 NUMBND =       7
 NUMANG =      11 NPTRA  =      12 NATYP =       6 NPHB   =       0
 IFBOX  =       1 NMXRS  =      28 IFCAP =       0 NEXTRA =       0
 NCOPY  =       0

     BOX TYPE: RECTILINEAR

--------------------------------------------------------------------------------
   2.  CONTROL  DATA  FOR  THE  RUN
--------------------------------------------------------------------------------

LIG

General flags:
     imin    =       0, nmropt  =       0

Nature and format of input:
     ntx     =       5, irest   =       1, ntrx    =       1

Nature and format of output:
     ntxo    =       1, ntpr    =     400, ntrx    =       1, ntwr    =    4000
     iwrap   =       1, ntwx    =     800, ntwv    =       0, ntwe    =     800
     ioutfm  =       1, ntwprt  =       0, idecomp =       0, rbornstat=      0

Potential function:
     ntf     =       2, ntb     =       1, igb     =       0, nsnb    =      25
     ipol    =       0, gbsa    =       0, iesp    =       0
     dielc   =   1.00000, cut     =   8.00000, intdiel =   1.00000

Frozen or restrained atoms:
     ibelly  =       0, ntr     =       1
     restraint_wt =  10.00000

Molecular dynamics:
     nstlim  =      4000, nscm    =         0, nrespa  =         1
     t       =   0.00000, dt      =   0.00200, vlimit  =  20.00000

Berendsen (weak-coupling) temperature regulation:
     temp0   = 300.00000, tempi   =   0.00000, tautp   =   1.00000

SHAKE:
     ntc     =       2, jfastw  =       0
     tol     =   0.00001

Ewald parameters:
     verbose =       0, ew_type =       0, nbflag  =       1, use_pme =       1
     vdwmeth =       1, eedmeth =       1, netfrc  =       1
     Box X =   40.882   Box Y =   50.917   Box Z =   38.420
     Alpha =   90.000   Beta  =   90.000   Gamma =   90.000
     NFFT1 =   40       NFFT2 =   50       NFFT3 =   40
     Cutoff=    8.000   Tol   =0.100E-04
     Ewald Coefficient =  0.34864
     Interpolation order =    4

    LOADING THE CONSTRAINED ATOMS AS GROUPS

   5.  REFERENCE ATOM COORDINATES

  LIG
     Mask !:CYC; matches    28 atoms

--------------------------------------------------------------------------------
   3.  ATOMIC COORDINATES AND VELOCITIES
--------------------------------------------------------------------------------

LIG
 begin time read from input coords =     2.000 ps

 Number of triangulated 3-point waters found:        0

     Sum of charges from parm topology file =  -0.00100000
     Forcing neutrality...

--------------------------------------------------------------------------------
   4.  RESULTS
 NSTEP =      400   TIME(PS) =       2.800  TEMP(K) =   213.55  PRESS =     0.0
 Etot   =      3009.1044  EKtot   =      1868.6487  EPtot      =      1140.4557
 BOND   =        97.0425  ANGLE   =       377.8213  DIHED      =       710.1013
 1-4 NB =       527.3182  1-4 EEL =      -168.3262  VDWAALS    =      -697.3955
 EELEC  =       290.8831  EHBOND  =         0.0000  RESTRAINT  =         3.0110
 EAMBER (non-restraint)  =      1137.4447
 Ewald error estimate:   0.1810E-03
 ------------------------------------------------------------------------------

      A V E R A G E S   O V E R    4000 S T E P S

 NSTEP =     4000   TIME(PS) =      10.000  TEMP(K) =   263.38  PRESS =     0.0
 Etot   =      4044.8657  EKtot   =      2304.6929  EPtot      =      1740.1728
 BOND   =       193.2983  ANGLE   =       772.9952  DIHED      =       779.5937
 1-4 NB =       568.5893  1-4 EEL =      -166.7061  VDWAALS    =      -703.2962
 EELEC  =       289.7771  EHBOND  =         0.0000  RESTRAINT  =         5.9214
 EAMBER (non-restraint)  =      1734.2514
 Ewald error estimate:   0.1180E-03
 ------------------------------------------------------------------------------

      R M S  F L U C T U A T I O N S

 NSTEP =     4000   TIME(PS) =      10.000  TEMP(K) =    30.90  PRESS =     0.0
 Etot   =       645.2180  EKtot   =       270.4006  EPtot      =       384.1316
 BOND   =        64.9880  ANGLE   =       264.3784  DIHED      =        41.1504
 1-4 NB =        22.5313  1-4 EEL =         1.6846  VDWAALS    =        15.5575
 EELEC  =         0.9740  EHBOND  =         0.0000  RESTRAINT  =         2.5047
 EAMBER (non-restraint)  =       381.6269
 Ewald error estimate:   0.7622E-04
 ------------------------------------------------------------------------------
