-------------------------------------------------------
          Amber 16 SANDER                              2016
          -------------------------------------------------------

  [-O]verwriting output

File Assignments:

 Here is the input file:

md with sander
&cntrl
ntxo=1,
imin = 0, nstlim = 15000, irest = 1, ntx = 5, dt = 0.002,
ntt = 1, temp0 = 298.0, tautp = 1.0,
ntp = 1, pres0 = 1.0, taup = 0.5,
ntb = 2,
ntc = 2, ntf = 2,
ioutfm = 1, iwrap = 1,
ntwe = 3000, ntwx = 3000, ntpr = 1500,
ntr = 1, restraint_wt = 10.00,
restraintmask="!:CYC",
/

--------------------------------------------------------------------------------
   1.  RESOURCE   USE:
--------------------------------------------------------------------------------

 getting new box info from bottom of inpcrd

 NATOM  =    3772 NTYPES =       6 NBONH =    2509 MBONA  =    1264
 NTHETH =    6272 MTHETA =    1270 NPHIH =   10052 MPHIA  =    3787
 NHPARM =       0 NPARM  =       0 NNB   =   22211 NRES   =     209
 NBONA  =    1264 NTHETA =    1270 NPHIA =    3787 NUMBND =       7
 NUMANG =      11 NPTRA  =      12 NATYP =       6 NPHB   =       0
 IFBOX  =       1 NMXRS  =      28 IFCAP =       0 NEXTRA =       0
 NCOPY  =       0

     BOX TYPE: RECTILINEAR

--------------------------------------------------------------------------------
   2.  CONTROL  DATA  FOR  THE  RUN
--------------------------------------------------------------------------------

LIG

General flags:
     imin    =       0, nmropt  =       0

Nature and format of input:
     ntx     =       5, irest   =       1, ntrx    =       1

Nature and format of output:
     ntxo    =       1, ntpr    =    1500, ntrx    =       1, ntwr    =   15000
     iwrap   =       1, ntwx    =    3000, ntwv    =       0, ntwe    =    3000
     ioutfm  =       1, ntwprt  =       0, idecomp =       0, rbornstat=      0

Potential function:
     ntf     =       2, ntb     =       2, igb     =       0, nsnb    =      25
     ipol    =       0, gbsa    =       0, iesp    =       0
     dielc   =   1.00000, cut     =   8.00000, intdiel =   1.00000

Frozen or restrained atoms:
     ibelly  =       0, ntr     =       1
     restraint_wt =  10.00000

Molecular dynamics:
     nstlim  =     15000, nscm    =         0, nrespa  =         1
     t       =   0.00000, dt      =   0.00200, vlimit  =  20.00000

Berendsen (weak-coupling) temperature regulation:
     temp0   = 298.00000, tempi   =   0.00000, tautp   =   1.00000

Pressure regulation:
     ntp     =       1
     pres0   =   1.00000, comp    =  44.60000, taup    =   0.50000

SHAKE:
     ntc     =       2, jfastw  =       0
     tol     =   0.00001

Ewald parameters:
     verbose =       0, ew_type =       0, nbflag  =       1, use_pme =       1
     vdwmeth =       1, eedmeth =       1, netfrc  =       1
     Box X =   40.882   Box Y =   50.917   Box Z =   38.420
     Alpha =   90.000   Beta  =   90.000   Gamma =   90.000
     NFFT1 =   40       NFFT2 =   50       NFFT3 =   40
     Cutoff=    8.000   Tol   =0.100E-04
     Ewald Coefficient =  0.34864
     Interpolation order =    4

    LOADING THE CONSTRAINED ATOMS AS GROUPS

   5.  REFERENCE ATOM COORDINATES

  LIG
     Mask !:CYC; matches    28 atoms

--------------------------------------------------------------------------------
   3.  ATOMIC COORDINATES AND VELOCITIES
--------------------------------------------------------------------------------

LIG
 begin time read from input coords =    10.000 ps

 Number of triangulated 3-point waters found:        0

     Sum of charges from parm topology file =  -0.00100000
     Forcing neutrality...

--------------------------------------------------------------------------------
   4.  RESULTS
 NSTEP =     1500   TIME(PS) =      13.000  TEMP(K) =   293.75  PRESS =     5.2
 Etot   =      4944.8609  EKtot   =      2570.4715  EPtot      =      2374.3894
 BOND   =       315.8186  ANGLE   =      1268.6231  DIHED      =       796.2645
 1-4 NB =       575.5248  1-4 EEL =      -165.9343  VDWAALS    =      -715.1590
 EELEC  =       289.4646  EHBOND  =         0.0000  RESTRAINT  =         9.7871
 EAMBER (non-restraint)  =      2364.6023
 EKCMT  =       420.1144  VIRIAL  =       410.6789  VOLUME     =     84269.0705
                                                    Density    =         0.3492
 Ewald error estimate:   0.1516E-03
 ------------------------------------------------------------------------------

      A V E R A G E S   O V E R   15000 S T E P S

 NSTEP =    15000   TIME(PS) =      40.000  TEMP(K) =   296.16  PRESS =   -46.0
 Etot   =      5149.5905  EKtot   =      2591.5352  EPtot      =      2558.0553
 BOND   =       353.2203  ANGLE   =      1505.0718  DIHED      =       775.5292
 1-4 NB =       584.8949  1-4 EEL =      -166.7986  VDWAALS    =      -791.2670
 EELEC  =       290.3624  EHBOND  =         0.0000  RESTRAINT  =         7.0422
 EAMBER (non-restraint)  =      2551.0131
 EKCMT  =       304.8516  VIRIAL  =       379.3749  VOLUME     =     81570.9716
                                                    Density    =         0.3619
 Ewald error estimate:   0.1696E-03
 ------------------------------------------------------------------------------

      R M S  F L U C T U A T I O N S

 NSTEP =    15000   TIME(PS) =      40.000  TEMP(K) =     3.78  PRESS =   141.0
 Etot   =       117.2057  EKtot   =        33.0340  EPtot      =       102.0202
 BOND   =        33.1324  ANGLE   =       136.4438  DIHED      =        15.5255
 1-4 NB =         8.9274  1-4 EEL =         1.2284  VDWAALS    =        75.5830
 EELEC  =         0.8068  EHBOND  =         0.0000  RESTRAINT  =         2.2854
 EAMBER (non-restraint)  =        99.7347
 EKCMT  =        66.9643  VIRIAL  =       198.0407  VOLUME     =      4647.9827
                                                    Density    =         0.0218
 Ewald error estimate:   0.9256E-04
 ------------------------------------------------------------------------------
