-------------------------------------------------------
          Amber 16 SANDER                              2016
          -------------------------------------------------------

  [-O]verwriting output

File Assignments:

 Here is the input file:

md with sander
&cntrl
ntxo=1,
imin = 0, nstlim = 15000, irest = 1, ntx = 5, dt = 0.002,
ntt = 1, temp0 = 298.0, tautp = 1.0,
ntp = 1, pres0 = 1.0, taup = 0.5,
ntb = 2,
ntc = 2, ntf = 2,
ioutfm = 1, iwrap = 1,
ntwe = 3000, ntwx = 3000, ntpr = 1500,
ntr = 1, restraint_wt = 10.00,
restraintmask="!:WAT,HOH,T3P,T4P",
/

--------------------------------------------------------------------------------
   1.  RESOURCE   USE:
--------------------------------------------------------------------------------

 getting new box info from bottom of inpcrd

 NATOM  =    3349 NTYPES =       8 NBONH =    3333 MBONA  =      17
 NTHETH =      30 MTHETA =      24 NPHIH =      67 MPHIA  =      47
 NHPARM =       0 NPARM  =       0 NNB   =    4591 NRES   =    1108
 NBONA  =      17 NTHETA =      24 NPHIA =      47 NUMBND =       9
 NUMANG =      11 NPTRA  =      11 NATYP =       8 NPHB   =       1
 IFBOX  =       1 NMXRS  =      28 IFCAP =       0 NEXTRA =       0
 NCOPY  =       0

     BOX TYPE: RECTILINEAR

--------------------------------------------------------------------------------
   2.  CONTROL  DATA  FOR  THE  RUN
--------------------------------------------------------------------------------

LIG

General flags:
     imin    =       0, nmropt  =       0

Nature and format of input:
     ntx     =       5, irest   =       1, ntrx    =       1

Nature and format of output:
     ntxo    =       1, ntpr    =    1500, ntrx    =       1, ntwr    =   15000
     iwrap   =       1, ntwx    =    3000, ntwv    =       0, ntwe    =    3000
     ioutfm  =       1, ntwprt  =       0, idecomp =       0, rbornstat=      0

Potential function:
     ntf     =       2, ntb     =       2, igb     =       0, nsnb    =      25
     ipol    =       0, gbsa    =       0, iesp    =       0
     dielc   =   1.00000, cut     =   8.00000, intdiel =   1.00000

Frozen or restrained atoms:
     ibelly  =       0, ntr     =       1
     restraint_wt =  10.00000

Molecular dynamics:
     nstlim  =     15000, nscm    =         0, nrespa  =         1
     t       =   0.00000, dt      =   0.00200, vlimit  =  20.00000

Berendsen (weak-coupling) temperature regulation:
     temp0   = 298.00000, tempi   =   0.00000, tautp   =   1.00000

Pressure regulation:
     ntp     =       1
     pres0   =   1.00000, comp    =  44.60000, taup    =   0.50000

SHAKE:
     ntc     =       2, jfastw  =       0
     tol     =   0.00001

Ewald parameters:
     verbose =       0, ew_type =       0, nbflag  =       1, use_pme =       1
     vdwmeth =       1, eedmeth =       1, netfrc  =       1
     Box X =   35.436   Box Y =   37.796   Box Z =   37.195
     Alpha =   90.000   Beta  =   90.000   Gamma =   90.000
     NFFT1 =   36       NFFT2 =   40       NFFT3 =   40
     Cutoff=    8.000   Tol   =0.100E-04
     Ewald Coefficient =  0.34864
     Interpolation order =    4

    LOADING THE CONSTRAINED ATOMS AS GROUPS

   5.  REFERENCE ATOM COORDINATES

  LIG
     Mask !:WAT,HOH,T3P,T4P; matches    28 atoms

--------------------------------------------------------------------------------
   3.  ATOMIC COORDINATES AND VELOCITIES
--------------------------------------------------------------------------------

LIG
 begin time read from input coords =    10.000 ps

 Number of triangulated 3-point waters found:     1107

     Sum of charges from parm topology file =  -0.00300000
     Forcing neutrality...

--------------------------------------------------------------------------------
   4.  RESULTS
 NSTEP =     1500   TIME(PS) =      13.000  TEMP(K) =   297.19  PRESS =  -339.8
 Etot   =     -8283.8813  EKtot   =      1982.5807  EPtot      =    -10266.4620
 BOND   =         9.0727  ANGLE   =         5.4814  DIHED      =         8.2591
 1-4 NB =         7.9857  1-4 EEL =        -1.8194  VDWAALS    =      1578.8786
 EELEC  =    -11877.9518  EHBOND  =         0.0000  RESTRAINT  =         3.6316
 EAMBER (non-restraint)  =    -10270.0936
 EKCMT  =      1027.6499  VIRIAL  =      1352.2201  VOLUME     =     44239.2649
                                                    Density    =         0.7573
 Ewald error estimate:   0.7709E-04
 ------------------------------------------------------------------------------

      A V E R A G E S   O V E R   15000 S T E P S

 NSTEP =    15000   TIME(PS) =      40.000  TEMP(K) =   297.61  PRESS =  -143.7
 Etot   =     -8496.3220  EKtot   =      1985.3660  EPtot      =    -10481.6879
 BOND   =         4.8951  ANGLE   =         9.3606  DIHED      =         9.5714
 1-4 NB =         8.3615  1-4 EEL =        -1.4679  VDWAALS    =      1564.9287
 EELEC  =    -12082.2739  EHBOND  =         0.0000  RESTRAINT  =         4.9365
 EAMBER (non-restraint)  =    -10486.6244
 EKCMT  =       987.4016  VIRIAL  =      1115.6695  VOLUME     =     36393.1625
                                                    Density    =         0.9320
 Ewald error estimate:   0.1595E-03
 ------------------------------------------------------------------------------

      R M S  F L U C T U A T I O N S

 NSTEP =    15000   TIME(PS) =      40.000  TEMP(K) =     4.21  PRESS =   308.7
 Etot   =       113.8720  EKtot   =        28.0927  EPtot      =       123.8685
 BOND   =         1.6314  ANGLE   =         1.9448  DIHED      =         0.8578
 1-4 NB =         0.7417  1-4 EEL =         0.2953  VDWAALS    =        40.1508
 EELEC  =       130.3826  EHBOND  =         0.0000  RESTRAINT  =         1.3310
 EAMBER (non-restraint)  =       122.5375
 EKCMT  =        22.2971  VIRIAL  =       260.9695  VOLUME     =      4380.1653
                                                    Density    =         0.0947
 Ewald error estimate:   0.1198E-03
 ------------------------------------------------------------------------------
