-------------------------------------------------------
          Amber 16 SANDER                              2016
          -------------------------------------------------------

  [-O]verwriting output

File Assignments:

 Here is the input file:

md with sander
&cntrl
ntxo=1,
imin = 0, nstlim = 15000, irest = 1, ntx = 5, dt = 0.002,
ntt = 1, temp0 = 298.0, tautp = 1.0,
ntp = 1, pres0 = 1.0, taup = 0.5,
ntb = 2,
ntc = 2, ntf = 2,
ioutfm = 1, iwrap = 1,
ntwe = 3000, ntwx = 3000, ntpr = 1500,
ntr = 1, restraint_wt = 10.00,
restraintmask="!:WAT,HOH,T3P,T4P",
/

--------------------------------------------------------------------------------
   1.  RESOURCE   USE:
--------------------------------------------------------------------------------

 getting new box info from bottom of inpcrd

 NATOM  =    3337 NTYPES =       8 NBONH =    3322 MBONA  =      16
 NTHETH =      32 MTHETA =      22 NPHIH =      68 MPHIA  =      43
 NHPARM =       0 NPARM  =       0 NNB   =    4576 NRES   =    1104
 NBONA  =      16 NTHETA =      22 NPHIA =      43 NUMBND =       9
 NUMANG =      11 NPTRA  =      12 NATYP =       8 NPHB   =       1
 IFBOX  =       1 NMXRS  =      28 IFCAP =       0 NEXTRA =       0
 NCOPY  =       0

     BOX TYPE: RECTILINEAR

--------------------------------------------------------------------------------
   2.  CONTROL  DATA  FOR  THE  RUN
--------------------------------------------------------------------------------

LIG

General flags:
     imin    =       0, nmropt  =       0

Nature and format of input:
     ntx     =       5, irest   =       1, ntrx    =       1

Nature and format of output:
     ntxo    =       1, ntpr    =    1500, ntrx    =       1, ntwr    =   15000
     iwrap   =       1, ntwx    =    3000, ntwv    =       0, ntwe    =    3000
     ioutfm  =       1, ntwprt  =       0, idecomp =       0, rbornstat=      0

Potential function:
     ntf     =       2, ntb     =       2, igb     =       0, nsnb    =      25
     ipol    =       0, gbsa    =       0, iesp    =       0
     dielc   =   1.00000, cut     =   8.00000, intdiel =   1.00000

Frozen or restrained atoms:
     ibelly  =       0, ntr     =       1
     restraint_wt =  10.00000

Molecular dynamics:
     nstlim  =     15000, nscm    =         0, nrespa  =         1
     t       =   0.00000, dt      =   0.00200, vlimit  =  20.00000

Berendsen (weak-coupling) temperature regulation:
     temp0   = 298.00000, tempi   =   0.00000, tautp   =   1.00000

Pressure regulation:
     ntp     =       1
     pres0   =   1.00000, comp    =  44.60000, taup    =   0.50000

SHAKE:
     ntc     =       2, jfastw  =       0
     tol     =   0.00001

Ewald parameters:
     verbose =       0, ew_type =       0, nbflag  =       1, use_pme =       1
     vdwmeth =       1, eedmeth =       1, netfrc  =       1
     Box X =   36.005   Box Y =   35.267   Box Z =   38.379
     Alpha =   90.000   Beta  =   90.000   Gamma =   90.000
     NFFT1 =   36       NFFT2 =   36       NFFT3 =   40
     Cutoff=    8.000   Tol   =0.100E-04
     Ewald Coefficient =  0.34864
     Interpolation order =    4

    LOADING THE CONSTRAINED ATOMS AS GROUPS

   5.  REFERENCE ATOM COORDINATES

  LIG
     Mask !:WAT,HOH,T3P,T4P; matches    28 atoms

--------------------------------------------------------------------------------
   3.  ATOMIC COORDINATES AND VELOCITIES
--------------------------------------------------------------------------------

LIG
 begin time read from input coords =    10.000 ps

 Number of triangulated 3-point waters found:     1103

     Sum of charges from parm topology file =   0.00200000
     Forcing neutrality...

--------------------------------------------------------------------------------
   4.  RESULTS
 NSTEP =     1500   TIME(PS) =      13.000  TEMP(K) =   292.99  PRESS =  -557.3
 Etot   =     -8265.2451  EKtot   =      1947.2499  EPtot      =    -10212.4950
 BOND   =         4.4765  ANGLE   =        11.8633  DIHED      =         5.7118
 1-4 NB =         7.2042  1-4 EEL =        -0.0042  VDWAALS    =      1512.5051
 EELEC  =    -11761.3122  EHBOND  =         0.0000  RESTRAINT  =         7.0603
 EAMBER (non-restraint)  =    -10219.5554
 EKCMT  =       971.3134  VIRIAL  =      1506.5979  VOLUME     =     44488.6863
                                                    Density    =         0.7497
 Ewald error estimate:   0.2584E-03
 ------------------------------------------------------------------------------

      A V E R A G E S   O V E R   15000 S T E P S

 NSTEP =    15000   TIME(PS) =      40.000  TEMP(K) =   297.80  PRESS =  -139.2
 Etot   =     -8454.1125  EKtot   =      1979.2370  EPtot      =    -10433.3495
 BOND   =         5.8332  ANGLE   =        11.5470  DIHED      =         6.7456
 1-4 NB =         8.2373  1-4 EEL =        -0.3970  VDWAALS    =      1561.6078
 EELEC  =    -12032.2692  EHBOND  =         0.0000  RESTRAINT  =         5.3458
 EAMBER (non-restraint)  =    -10438.6953
 EKCMT  =       986.8892  VIRIAL  =      1109.0883  VOLUME     =     36622.6752
                                                    Density    =         0.9223
 Ewald error estimate:   0.1628E-03
 ------------------------------------------------------------------------------

      R M S  F L U C T U A T I O N S

 NSTEP =    15000   TIME(PS) =      40.000  TEMP(K) =     4.30  PRESS =   283.3
 Etot   =       115.9604  EKtot   =        28.5500  EPtot      =       124.0173
 BOND   =         1.7958  ANGLE   =         2.1029  DIHED      =         1.0391
 1-4 NB =         0.7567  1-4 EEL =         0.2909  VDWAALS    =        39.2612
 EELEC  =       128.8285  EHBOND  =         0.0000  RESTRAINT  =         1.4391
 EAMBER (non-restraint)  =       122.5783
 EKCMT  =        23.1841  VIRIAL  =       237.6624  VOLUME     =      4411.6377
                                                    Density    =         0.0966
 Ewald error estimate:   0.1219E-03
 ------------------------------------------------------------------------------
