-------------------------------------------------------
          Amber 16 SANDER                              2016
          -------------------------------------------------------

  [-O]verwriting output

File Assignments:

 Here is the input file:

md with sander
&cntrl
ntxo=1,
imin = 0, nstlim = 15000, irest = 1, ntx = 5, dt = 0.002,
ntt = 1, temp0 = 298.0, tautp = 1.0,
ntp = 1, pres0 = 1.0, taup = 0.5,
ntb = 2,
ntc = 2, ntf = 2,
ioutfm = 1, iwrap = 1,
ntwe = 3000, ntwx = 3000, ntpr = 1500,
ntr = 1, restraint_wt = 10.00,
restraintmask="!:CYC",
/

--------------------------------------------------------------------------------
   1.  RESOURCE   USE:
--------------------------------------------------------------------------------

 getting new box info from bottom of inpcrd

 NATOM  =    4270 NTYPES =       4 NBONH =    2842 MBONA  =    1429
 NTHETH =    7100 MTHETA =    1432 NPHIH =   11370 MPHIA  =    4268
 NHPARM =       0 NPARM  =       0 NNB   =   25124 NRES   =     237
 NBONA  =    1429 NTHETA =    1432 NPHIA =    4268 NUMBND =       6
 NUMANG =       9 NPTRA  =       8 NATYP =       5 NPHB   =       0
 IFBOX  =       1 NMXRS  =      22 IFCAP =       0 NEXTRA =       0
 NCOPY  =       0

     BOX TYPE: RECTILINEAR

--------------------------------------------------------------------------------
   2.  CONTROL  DATA  FOR  THE  RUN
--------------------------------------------------------------------------------

LIG

General flags:
     imin    =       0, nmropt  =       0

Nature and format of input:
     ntx     =       5, irest   =       1, ntrx    =       1

Nature and format of output:
     ntxo    =       1, ntpr    =    1500, ntrx    =       1, ntwr    =   15000
     iwrap   =       1, ntwx    =    3000, ntwv    =       0, ntwe    =    3000
     ioutfm  =       1, ntwprt  =       0, idecomp =       0, rbornstat=      0

Potential function:
     ntf     =       2, ntb     =       2, igb     =       0, nsnb    =      25
     ipol    =       0, gbsa    =       0, iesp    =       0
     dielc   =   1.00000, cut     =   8.00000, intdiel =   1.00000

Frozen or restrained atoms:
     ibelly  =       0, ntr     =       1
     restraint_wt =  10.00000

Molecular dynamics:
     nstlim  =     15000, nscm    =         0, nrespa  =         1
     t       =   0.00000, dt      =   0.00200, vlimit  =  20.00000

Berendsen (weak-coupling) temperature regulation:
     temp0   = 298.00000, tempi   =   0.00000, tautp   =   1.00000

Pressure regulation:
     ntp     =       1
     pres0   =   1.00000, comp    =  44.60000, taup    =   0.50000

SHAKE:
     ntc     =       2, jfastw  =       0
     tol     =   0.00001

Ewald parameters:
     verbose =       0, ew_type =       0, nbflag  =       1, use_pme =       1
     vdwmeth =       1, eedmeth =       1, netfrc  =       1
     Box X =   54.510   Box Y =   36.369   Box Z =   46.105
     Alpha =   90.000   Beta  =   90.000   Gamma =   90.000
     NFFT1 =   54       NFFT2 =   36       NFFT3 =   48
     Cutoff=    8.000   Tol   =0.100E-04
     Ewald Coefficient =  0.34864
     Interpolation order =    4

    LOADING THE CONSTRAINED ATOMS AS GROUPS

   5.  REFERENCE ATOM COORDINATES

  LIG
     Mask !:CYC; matches    22 atoms

--------------------------------------------------------------------------------
   3.  ATOMIC COORDINATES AND VELOCITIES
--------------------------------------------------------------------------------

LIG
 begin time read from input coords =    10.000 ps

 Number of triangulated 3-point waters found:        0

     Sum of charges from parm topology file =   0.00000000
     Forcing neutrality...

--------------------------------------------------------------------------------
   4.  RESULTS
 NSTEP =     1500   TIME(PS) =      13.000  TEMP(K) =   294.37  PRESS =    82.5
 Etot   =      5628.1882  EKtot   =      2915.5131  EPtot      =      2712.6751
 BOND   =       341.1540  ANGLE   =      1440.4711  DIHED      =       916.1532
 1-4 NB =       662.4686  1-4 EEL =      -182.5016  VDWAALS    =      -791.6987
 EELEC  =       322.1206  EHBOND  =         0.0000  RESTRAINT  =         4.5080
 EAMBER (non-restraint)  =      2708.1670
 EKCMT  =       439.6191  VIRIAL  =       270.9445  VOLUME     =     94745.0195
                                                    Density    =         0.3508
 Ewald error estimate:   0.1010E-03
 ------------------------------------------------------------------------------

      A V E R A G E S   O V E R   15000 S T E P S

 NSTEP =    15000   TIME(PS) =      40.000  TEMP(K) =   296.38  PRESS =   -58.3
 Etot   =      5811.6755  EKtot   =      2935.4134  EPtot      =      2876.2620
 BOND   =       401.5308  ANGLE   =      1712.3421  DIHED      =       873.2748
 1-4 NB =       661.0755  1-4 EEL =      -183.9754  VDWAALS    =      -916.7496
 EELEC  =       323.5460  EHBOND  =         0.0000  RESTRAINT  =         5.2179
 EAMBER (non-restraint)  =      2871.0442
 EKCMT  =       333.7321  VIRIAL  =       439.9767  VOLUME     =     90765.6290
                                                    Density    =         0.3676
 Ewald error estimate:   0.1740E-03
 ------------------------------------------------------------------------------

      R M S  F L U C T U A T I O N S

 NSTEP =    15000   TIME(PS) =      40.000  TEMP(K) =     3.79  PRESS =   125.4
 Etot   =       116.4513  EKtot   =        37.5008  EPtot      =        99.8101
 BOND   =        33.6409  ANGLE   =       148.8736  DIHED      =        20.1526
 1-4 NB =         8.6386  1-4 EEL =         1.2969  VDWAALS    =       102.5831
 EELEC  =         0.8363  EHBOND  =         0.0000  RESTRAINT  =         1.6539
 EAMBER (non-restraint)  =        98.1562
 EKCMT  =        65.8214  VIRIAL  =       199.0117  VOLUME     =      5537.8939
                                                    Density    =         0.0239
 Ewald error estimate:   0.8756E-04
 ------------------------------------------------------------------------------
