-------------------------------------------------------
          Amber 16 SANDER                              2016
          -------------------------------------------------------

  [-O]verwriting output

File Assignments:

 Here is the input file:

md with sander
&cntrl
ntxo=1,
imin = 0, nstlim = 15000, irest = 1, ntx = 5, dt = 0.002,
ntt = 1, temp0 = 298.0, tautp = 1.0,
ntp = 1, pres0 = 1.0, taup = 0.5,
ntb = 2,
ntc = 2, ntf = 2,
ioutfm = 1, iwrap = 1,
ntwe = 3000, ntwx = 3000, ntpr = 1500,
ntr = 1, restraint_wt = 10.00,
restraintmask="!:WAT,HOH,T3P,T4P",
/

--------------------------------------------------------------------------------
   1.  RESOURCE   USE:
--------------------------------------------------------------------------------

 getting new box info from bottom of inpcrd

 NATOM  =    3280 NTYPES =       8 NBONH =    3266 MBONA  =      15
 NTHETH =      34 MTHETA =      20 NPHIH =      68 MPHIA  =      40
 NHPARM =       0 NPARM  =       0 NNB   =    4499 NRES   =    1085
 NBONA  =      15 NTHETA =      20 NPHIA =      40 NUMBND =       9
 NUMANG =      11 NPTRA  =      12 NATYP =       8 NPHB   =       1
 IFBOX  =       1 NMXRS  =      28 IFCAP =       0 NEXTRA =       0
 NCOPY  =       0

     BOX TYPE: RECTILINEAR

--------------------------------------------------------------------------------
   2.  CONTROL  DATA  FOR  THE  RUN
--------------------------------------------------------------------------------

LIG

General flags:
     imin    =       0, nmropt  =       0

Nature and format of input:
     ntx     =       5, irest   =       1, ntrx    =       1

Nature and format of output:
     ntxo    =       1, ntpr    =    1500, ntrx    =       1, ntwr    =   15000
     iwrap   =       1, ntwx    =    3000, ntwv    =       0, ntwe    =    3000
     ioutfm  =       1, ntwprt  =       0, idecomp =       0, rbornstat=      0

Potential function:
     ntf     =       2, ntb     =       2, igb     =       0, nsnb    =      25
     ipol    =       0, gbsa    =       0, iesp    =       0
     dielc   =   1.00000, cut     =   8.00000, intdiel =   1.00000

Frozen or restrained atoms:
     ibelly  =       0, ntr     =       1
     restraint_wt =  10.00000

Molecular dynamics:
     nstlim  =     15000, nscm    =         0, nrespa  =         1
     t       =   0.00000, dt      =   0.00200, vlimit  =  20.00000

Berendsen (weak-coupling) temperature regulation:
     temp0   = 298.00000, tempi   =   0.00000, tautp   =   1.00000

Pressure regulation:
     ntp     =       1
     pres0   =   1.00000, comp    =  44.60000, taup    =   0.50000

SHAKE:
     ntc     =       2, jfastw  =       0
     tol     =   0.00001

Ewald parameters:
     verbose =       0, ew_type =       0, nbflag  =       1, use_pme =       1
     vdwmeth =       1, eedmeth =       1, netfrc  =       1
     Box X =   35.436   Box Y =   36.762   Box Z =   37.195
     Alpha =   90.000   Beta  =   90.000   Gamma =   90.000
     NFFT1 =   36       NFFT2 =   36       NFFT3 =   40
     Cutoff=    8.000   Tol   =0.100E-04
     Ewald Coefficient =  0.34864
     Interpolation order =    4

    LOADING THE CONSTRAINED ATOMS AS GROUPS

   5.  REFERENCE ATOM COORDINATES

  LIG
     Mask !:WAT,HOH,T3P,T4P; matches    28 atoms

--------------------------------------------------------------------------------
   3.  ATOMIC COORDINATES AND VELOCITIES
--------------------------------------------------------------------------------

LIG
 begin time read from input coords =    10.000 ps

 Number of triangulated 3-point waters found:     1084

     Sum of charges from parm topology file =  -0.00200000
     Forcing neutrality...

--------------------------------------------------------------------------------
   4.  RESULTS
 NSTEP =     1500   TIME(PS) =      13.000  TEMP(K) =   292.24  PRESS =  -492.0
 Etot   =     -8102.3548  EKtot   =      1908.8522  EPtot      =    -10011.2069
 BOND   =         4.8857  ANGLE   =        10.2470  DIHED      =         6.3641
 1-4 NB =         7.5538  1-4 EEL =         4.0793  VDWAALS    =      1531.5413
 EELEC  =    -11579.2691  EHBOND  =         0.0000  RESTRAINT  =         3.3910
 EAMBER (non-restraint)  =    -10014.5979
 EKCMT  =       955.3385  VIRIAL  =      1419.3148  VOLUME     =     43676.4280
                                                    Density    =         0.7500
 Ewald error estimate:   0.2729E-04
 ------------------------------------------------------------------------------

      A V E R A G E S   O V E R   15000 S T E P S

 NSTEP =    15000   TIME(PS) =      40.000  TEMP(K) =   297.70  PRESS =  -140.1
 Etot   =     -8312.4316  EKtot   =      1944.5465  EPtot      =    -10256.9780
 BOND   =         3.7043  ANGLE   =         7.3750  DIHED      =         8.1346
 1-4 NB =         7.7071  1-4 EEL =         3.8748  VDWAALS    =      1534.1978
 EELEC  =    -11826.5291  EHBOND  =         0.0000  RESTRAINT  =         4.5573
 EAMBER (non-restraint)  =    -10261.5354
 EKCMT  =       969.0769  VIRIAL  =      1091.2559  VOLUME     =     35712.5814
                                                    Density    =         0.9281
 Ewald error estimate:   0.1539E-03
 ------------------------------------------------------------------------------

      R M S  F L U C T U A T I O N S

 NSTEP =    15000   TIME(PS) =      40.000  TEMP(K) =     4.52  PRESS =   310.2
 Etot   =       115.9982  EKtot   =        29.5139  EPtot      =       126.2807
 BOND   =         1.2222  ANGLE   =         1.3747  DIHED      =         0.8646
 1-4 NB =         0.6676  1-4 EEL =         0.1870  VDWAALS    =        41.2647
 EELEC  =       142.5088  EHBOND  =         0.0000  RESTRAINT  =         1.1449
 EAMBER (non-restraint)  =       125.1358
 EKCMT  =        22.5116  VIRIAL  =       253.6909  VOLUME     =      4210.5210
                                                    Density    =         0.0924
 Ewald error estimate:   0.1157E-03
 ------------------------------------------------------------------------------
