-------------------------------------------------------
          Amber 16 SANDER                              2016
          -------------------------------------------------------

  [-O]verwriting output

File Assignments:

 Here is the input file:

md with sander
&cntrl
ntxo=1,
imin = 0, nstlim = 15000, irest = 1, ntx = 5, dt = 0.002,
ntt = 1, temp0 = 298.0, tautp = 1.0,
ntp = 1, pres0 = 1.0, taup = 0.5,
ntb = 2,
ntc = 2, ntf = 2,
ioutfm = 1, iwrap = 1,
ntwe = 3000, ntwx = 3000, ntpr = 1500,
ntr = 1, restraint_wt = 10.00,
restraintmask="!:CYC",
/

--------------------------------------------------------------------------------
   1.  RESOURCE   USE:
--------------------------------------------------------------------------------

 getting new box info from bottom of inpcrd

 NATOM  =    2692 NTYPES =       4 NBONH =    1792 MBONA  =     901
 NTHETH =    4478 MTHETA =     904 NPHIH =    7173 MPHIA  =    2697
 NHPARM =       0 NPARM  =       0 NNB   =   15854 NRES   =     149
 NBONA  =     901 NTHETA =     904 NPHIA =    2697 NUMBND =       5
 NUMANG =       8 NPTRA  =       9 NATYP =       4 NPHB   =       0
 IFBOX  =       1 NMXRS  =      28 IFCAP =       0 NEXTRA =       0
 NCOPY  =       0

     BOX TYPE: RECTILINEAR

--------------------------------------------------------------------------------
   2.  CONTROL  DATA  FOR  THE  RUN
--------------------------------------------------------------------------------

LIG

General flags:
     imin    =       0, nmropt  =       0

Nature and format of input:
     ntx     =       5, irest   =       1, ntrx    =       1

Nature and format of output:
     ntxo    =       1, ntpr    =    1500, ntrx    =       1, ntwr    =   15000
     iwrap   =       1, ntwx    =    3000, ntwv    =       0, ntwe    =    3000
     ioutfm  =       1, ntwprt  =       0, idecomp =       0, rbornstat=      0

Potential function:
     ntf     =       2, ntb     =       2, igb     =       0, nsnb    =      25
     ipol    =       0, gbsa    =       0, iesp    =       0
     dielc   =   1.00000, cut     =   8.00000, intdiel =   1.00000

Frozen or restrained atoms:
     ibelly  =       0, ntr     =       1
     restraint_wt =  10.00000

Molecular dynamics:
     nstlim  =     15000, nscm    =         0, nrespa  =         1
     t       =   0.00000, dt      =   0.00200, vlimit  =  20.00000

Berendsen (weak-coupling) temperature regulation:
     temp0   = 298.00000, tempi   =   0.00000, tautp   =   1.00000

Pressure regulation:
     ntp     =       1
     pres0   =   1.00000, comp    =  44.60000, taup    =   0.50000

SHAKE:
     ntc     =       2, jfastw  =       0
     tol     =   0.00001

Ewald parameters:
     verbose =       0, ew_type =       0, nbflag  =       1, use_pme =       1
     vdwmeth =       1, eedmeth =       1, netfrc  =       1
     Box X =   40.882   Box Y =   36.369   Box Z =   38.420
     Alpha =   90.000   Beta  =   90.000   Gamma =   90.000
     NFFT1 =   40       NFFT2 =   36       NFFT3 =   40
     Cutoff=    8.000   Tol   =0.100E-04
     Ewald Coefficient =  0.34864
     Interpolation order =    4

    LOADING THE CONSTRAINED ATOMS AS GROUPS

   5.  REFERENCE ATOM COORDINATES

  LIG
     Mask !:CYC; matches    28 atoms

--------------------------------------------------------------------------------
   3.  ATOMIC COORDINATES AND VELOCITIES
--------------------------------------------------------------------------------

LIG
 begin time read from input coords =    10.000 ps

 Number of triangulated 3-point waters found:        0

     Sum of charges from parm topology file =   0.00200000
     Forcing neutrality...

--------------------------------------------------------------------------------
   4.  RESULTS
 NSTEP =     1500   TIME(PS) =      13.000  TEMP(K) =   294.20  PRESS =     4.3
 Etot   =      3544.1727  EKtot   =      1836.9006  EPtot      =      1707.2721
 BOND   =       226.4261  ANGLE   =       917.8508  DIHED      =       570.0536
 1-4 NB =       420.1276  1-4 EEL =      -117.0633  VDWAALS    =      -520.5863
 EELEC  =       204.1183  EHBOND  =         0.0000  RESTRAINT  =         6.3453
 EAMBER (non-restraint)  =      1700.9267
 EKCMT  =       286.6642  VIRIAL  =       281.1634  VOLUME     =     59536.4814
                                                    Density    =         0.3519
 Ewald error estimate:   0.1052E-03
 ------------------------------------------------------------------------------

      A V E R A G E S   O V E R   15000 S T E P S

 NSTEP =    15000   TIME(PS) =      40.000  TEMP(K) =   296.15  PRESS =   -37.1
 Etot   =      3679.6477  EKtot   =      1849.0852  EPtot      =      1830.5625
 BOND   =       257.8871  ANGLE   =      1065.0120  DIHED      =       553.8357
 1-4 NB =       417.1408  1-4 EEL =      -117.0498  VDWAALS    =      -555.5852
 EELEC  =       204.2165  EHBOND  =         0.0000  RESTRAINT  =         5.1054
 EAMBER (non-restraint)  =      1825.4571
 EKCMT  =       218.6243  VIRIAL  =       262.0211  VOLUME     =     58453.1943
                                                    Density    =         0.3592
 Ewald error estimate:   0.1473E-03
 ------------------------------------------------------------------------------

      R M S  F L U C T U A T I O N S

 NSTEP =    15000   TIME(PS) =      40.000  TEMP(K) =     4.17  PRESS =   138.8
 Etot   =        79.1514  EKtot   =        26.0563  EPtot      =        70.0632
 BOND   =        22.6762  ANGLE   =        93.8892  DIHED      =        11.5168
 1-4 NB =         7.7671  1-4 EEL =         1.0970  VDWAALS    =        50.9518
 EELEC  =         0.6459  EHBOND  =         0.0000  RESTRAINT  =         1.4590
 EAMBER (non-restraint)  =        68.6043
 EKCMT  =        45.3052  VIRIAL  =       147.5496  VOLUME     =      2787.8715
                                                    Density    =         0.0180
 Ewald error estimate:   0.9689E-04
 ------------------------------------------------------------------------------
