-------------------------------------------------------
          Amber 16 SANDER                              2016
          -------------------------------------------------------

  [-O]verwriting output

File Assignments:

 Here is the input file:

md with sander
&cntrl
ntxo=1,
imin = 0, nstlim = 15000, irest = 1, ntx = 5, dt = 0.002,
ntt = 1, temp0 = 298.0, tautp = 1.0,
ntp = 1, pres0 = 1.0, taup = 0.5,
ntb = 2,
ntc = 2, ntf = 2,
ioutfm = 1, iwrap = 1,
ntwe = 3000, ntwx = 3000, ntpr = 1500,
ntr = 1, restraint_wt = 10.00,
restraintmask="!:CYC",
/

--------------------------------------------------------------------------------
   1.  RESOURCE   USE:
--------------------------------------------------------------------------------

 getting new box info from bottom of inpcrd

 NATOM  =    3592 NTYPES =       4 NBONH =    2392 MBONA  =    1201
 NTHETH =    5978 MTHETA =    1204 NPHIH =    9573 MPHIA  =    3597
 NHPARM =       0 NPARM  =       0 NNB   =   21154 NRES   =     199
 NBONA  =    1201 NTHETA =    1204 NPHIA =    3597 NUMBND =       5
 NUMANG =       8 NPTRA  =       9 NATYP =       4 NPHB   =       0
 IFBOX  =       1 NMXRS  =      28 IFCAP =       0 NEXTRA =       0
 NCOPY  =       0

     BOX TYPE: RECTILINEAR

--------------------------------------------------------------------------------
   2.  CONTROL  DATA  FOR  THE  RUN
--------------------------------------------------------------------------------

LIG

General flags:
     imin    =       0, nmropt  =       0

Nature and format of input:
     ntx     =       5, irest   =       1, ntrx    =       1

Nature and format of output:
     ntxo    =       1, ntpr    =    1500, ntrx    =       1, ntwr    =   15000
     iwrap   =       1, ntwx    =    3000, ntwv    =       0, ntwe    =    3000
     ioutfm  =       1, ntwprt  =       0, idecomp =       0, rbornstat=      0

Potential function:
     ntf     =       2, ntb     =       2, igb     =       0, nsnb    =      25
     ipol    =       0, gbsa    =       0, iesp    =       0
     dielc   =   1.00000, cut     =   8.00000, intdiel =   1.00000

Frozen or restrained atoms:
     ibelly  =       0, ntr     =       1
     restraint_wt =  10.00000

Molecular dynamics:
     nstlim  =     15000, nscm    =         0, nrespa  =         1
     t       =   0.00000, dt      =   0.00200, vlimit  =  20.00000

Berendsen (weak-coupling) temperature regulation:
     temp0   = 298.00000, tempi   =   0.00000, tautp   =   1.00000

Pressure regulation:
     ntp     =       1
     pres0   =   1.00000, comp    =  44.60000, taup    =   0.50000

SHAKE:
     ntc     =       2, jfastw  =       0
     tol     =   0.00001

Ewald parameters:
     verbose =       0, ew_type =       0, nbflag  =       1, use_pme =       1
     vdwmeth =       1, eedmeth =       1, netfrc  =       1
     Box X =   54.510   Box Y =   36.369   Box Z =   38.420
     Alpha =   90.000   Beta  =   90.000   Gamma =   90.000
     NFFT1 =   54       NFFT2 =   36       NFFT3 =   40
     Cutoff=    8.000   Tol   =0.100E-04
     Ewald Coefficient =  0.34864
     Interpolation order =    4

    LOADING THE CONSTRAINED ATOMS AS GROUPS

   5.  REFERENCE ATOM COORDINATES

  LIG
     Mask !:CYC; matches    28 atoms

--------------------------------------------------------------------------------
   3.  ATOMIC COORDINATES AND VELOCITIES
--------------------------------------------------------------------------------

LIG
 begin time read from input coords =    10.000 ps

 Number of triangulated 3-point waters found:        0

     Sum of charges from parm topology file =   0.00000000
     Forcing neutrality...

--------------------------------------------------------------------------------
   4.  RESULTS
 NSTEP =     1500   TIME(PS) =      13.000  TEMP(K) =   292.28  PRESS =   226.5
 Etot   =      4739.0136  EKtot   =      2434.7737  EPtot      =      2304.2399
 BOND   =       280.4594  ANGLE   =      1216.8273  DIHED      =       759.0962
 1-4 NB =       574.2749  1-4 EEL =      -157.1215  VDWAALS    =      -649.5637
 EELEC  =       273.1442  EHBOND  =         0.0000  RESTRAINT  =         7.1231
 EAMBER (non-restraint)  =      2297.1168
 EKCMT  =       380.0409  VIRIAL  =        -5.5318  VOLUME     =     78826.1785
                                                    Density    =         0.3544
 Ewald error estimate:   0.2343E-03
 ------------------------------------------------------------------------------

      A V E R A G E S   O V E R   15000 S T E P S

 NSTEP =    15000   TIME(PS) =      40.000  TEMP(K) =   296.37  PRESS =   -75.8
 Etot   =      4904.2246  EKtot   =      2468.8223  EPtot      =      2435.4024
 BOND   =       348.5616  ANGLE   =      1438.8960  DIHED      =       748.4559
 1-4 NB =       559.3060  1-4 EEL =      -156.6484  VDWAALS    =      -782.8508
 EELEC  =       273.0868  EHBOND  =         0.0000  RESTRAINT  =         6.5952
 EAMBER (non-restraint)  =      2428.8072
 EKCMT  =       280.8911  VIRIAL  =       393.4760  VOLUME     =     74767.2081
                                                    Density    =         0.3758
 Ewald error estimate:   0.2080E-03
 ------------------------------------------------------------------------------

      R M S  F L U C T U A T I O N S

 NSTEP =    15000   TIME(PS) =      40.000  TEMP(K) =     4.07  PRESS =   142.8
 Etot   =       102.8054  EKtot   =        33.9316  EPtot      =        90.6744
 BOND   =        30.2126  ANGLE   =       132.4963  DIHED      =        18.1844
 1-4 NB =         9.0665  1-4 EEL =         1.2264  VDWAALS    =        93.6760
 EELEC  =         0.7789  EHBOND  =         0.0000  RESTRAINT  =         1.7306
 EAMBER (non-restraint)  =        88.9438
 EKCMT  =        55.3473  VIRIAL  =       188.2024  VOLUME     =      5467.9398
                                                    Density    =         0.0295
 Ewald error estimate:   0.1007E-03
 ------------------------------------------------------------------------------
