-------------------------------------------------------
          Amber 16 SANDER                              2016
          -------------------------------------------------------

  [-O]verwriting output

File Assignments:

 Here is the input file:

md with sander
&cntrl
ntxo=1,
imin = 0, nstlim = 15000, irest = 1, ntx = 5, dt = 0.002,
ntt = 1, temp0 = 298.0, tautp = 1.0,
ntp = 1, pres0 = 1.0, taup = 0.5,
ntb = 2,
ntc = 2, ntf = 2,
ioutfm = 1, iwrap = 1,
ntwe = 3000, ntwx = 3000, ntpr = 1500,
ntr = 1, restraint_wt = 10.00,
restraintmask="!:WAT,HOH,T3P,T4P",
/

--------------------------------------------------------------------------------
   1.  RESOURCE   USE:
--------------------------------------------------------------------------------

 getting new box info from bottom of inpcrd

 NATOM  =    3160 NTYPES =       6 NBONH =    3148 MBONA  =      13
 NTHETH =      38 MTHETA =      16 NPHIH =      69 MPHIA  =      33
 NHPARM =       0 NPARM  =       0 NNB   =    4342 NRES   =    1045
 NBONA  =      13 NTHETA =      16 NPHIA =      33 NUMBND =       7
 NUMANG =       8 NPTRA  =       9 NATYP =       6 NPHB   =       1
 IFBOX  =       1 NMXRS  =      28 IFCAP =       0 NEXTRA =       0
 NCOPY  =       0

     BOX TYPE: RECTILINEAR

--------------------------------------------------------------------------------
   2.  CONTROL  DATA  FOR  THE  RUN
--------------------------------------------------------------------------------

LIG

General flags:
     imin    =       0, nmropt  =       0

Nature and format of input:
     ntx     =       5, irest   =       1, ntrx    =       1

Nature and format of output:
     ntxo    =       1, ntpr    =    1500, ntrx    =       1, ntwr    =   15000
     iwrap   =       1, ntwx    =    3000, ntwv    =       0, ntwe    =    3000
     ioutfm  =       1, ntwprt  =       0, idecomp =       0, rbornstat=      0

Potential function:
     ntf     =       2, ntb     =       2, igb     =       0, nsnb    =      25
     ipol    =       0, gbsa    =       0, iesp    =       0
     dielc   =   1.00000, cut     =   8.00000, intdiel =   1.00000

Frozen or restrained atoms:
     ibelly  =       0, ntr     =       1
     restraint_wt =  10.00000

Molecular dynamics:
     nstlim  =     15000, nscm    =         0, nrespa  =         1
     t       =   0.00000, dt      =   0.00200, vlimit  =  20.00000

Berendsen (weak-coupling) temperature regulation:
     temp0   = 298.00000, tempi   =   0.00000, tautp   =   1.00000

Pressure regulation:
     ntp     =       1
     pres0   =   1.00000, comp    =  44.60000, taup    =   0.50000

SHAKE:
     ntc     =       2, jfastw  =       0
     tol     =   0.00001

Ewald parameters:
     verbose =       0, ew_type =       0, nbflag  =       1, use_pme =       1
     vdwmeth =       1, eedmeth =       1, netfrc  =       1
     Box X =   38.861   Box Y =   34.260   Box Z =   34.680
     Alpha =   90.000   Beta  =   90.000   Gamma =   90.000
     NFFT1 =   40       NFFT2 =   36       NFFT3 =   36
     Cutoff=    8.000   Tol   =0.100E-04
     Ewald Coefficient =  0.34864
     Interpolation order =    4

    LOADING THE CONSTRAINED ATOMS AS GROUPS

   5.  REFERENCE ATOM COORDINATES

  LIG
     Mask !:WAT,HOH,T3P,T4P; matches    28 atoms

--------------------------------------------------------------------------------
   3.  ATOMIC COORDINATES AND VELOCITIES
--------------------------------------------------------------------------------

LIG
 begin time read from input coords =    10.000 ps

 Number of triangulated 3-point waters found:     1044

     Sum of charges from parm topology file =   0.00000000
     Forcing neutrality...

--------------------------------------------------------------------------------
   4.  RESULTS
 NSTEP =     1500   TIME(PS) =      13.000  TEMP(K) =   298.13  PRESS =  -382.0
 Etot   =     -7808.7284  EKtot   =      1875.6709  EPtot      =     -9684.3993
 BOND   =         4.6138  ANGLE   =        10.2981  DIHED      =         9.7894
 1-4 NB =         9.0699  1-4 EEL =         0.0302  VDWAALS    =      1503.7400
 EELEC  =    -11226.9357  EHBOND  =         0.0000  RESTRAINT  =         4.9950
 EAMBER (non-restraint)  =     -9689.3944
 EKCMT  =       915.5717  VIRIAL  =      1248.3959  VOLUME     =     40351.0059
                                                    Density    =         0.7806
 Ewald error estimate:   0.2793E-05
 ------------------------------------------------------------------------------

      A V E R A G E S   O V E R   15000 S T E P S

 NSTEP =    15000   TIME(PS) =      40.000  TEMP(K) =   297.62  PRESS =  -138.1
 Etot   =     -8008.6422  EKtot   =      1872.4845  EPtot      =     -9881.1267
 BOND   =         4.7814  ANGLE   =        11.4564  DIHED      =        10.0677
 1-4 NB =         8.6460  1-4 EEL =         0.1098  VDWAALS    =      1479.4584
 EELEC  =    -11401.7925  EHBOND  =         0.0000  RESTRAINT  =         6.1461
 EAMBER (non-restraint)  =     -9887.2728
 EKCMT  =       929.6437  VIRIAL  =      1044.7193  VOLUME     =     33973.4808
                                                    Density    =         0.9362
 Ewald error estimate:   0.1700E-03
 ------------------------------------------------------------------------------

      R M S  F L U C T U A T I O N S

 NSTEP =    15000   TIME(PS) =      40.000  TEMP(K) =     4.45  PRESS =   323.7
 Etot   =       107.3258  EKtot   =        28.0160  EPtot      =       117.0886
 BOND   =         1.6503  ANGLE   =         2.1517  DIHED      =         1.0489
 1-4 NB =         0.7455  1-4 EEL =         0.0892  VDWAALS    =        39.6723
 EELEC  =       125.2472  EHBOND  =         0.0000  RESTRAINT  =         1.5155
 EAMBER (non-restraint)  =       115.5731
 EKCMT  =        20.5474  VIRIAL  =       251.4068  VOLUME     =      3655.1263
                                                    Density    =         0.0847
 Ewald error estimate:   0.1286E-03
 ------------------------------------------------------------------------------
