-------------------------------------------------------
          Amber 16 SANDER                              2016
          -------------------------------------------------------

  [-O]verwriting output

File Assignments:

 Here is the input file:

md with sander
&cntrl
ntxo=1,
imin = 0, nstlim = 15000, irest = 1, ntx = 5, dt = 0.002,
ntt = 1, temp0 = 298.0, tautp = 1.0,
ntp = 1, pres0 = 1.0, taup = 0.5,
ntb = 2,
ntc = 2, ntf = 2,
ioutfm = 1, iwrap = 1,
ntwe = 3000, ntwx = 3000, ntpr = 1500,
ntr = 1, restraint_wt = 10.00,
restraintmask="!:CYC",
/

--------------------------------------------------------------------------------
   1.  RESOURCE   USE:
--------------------------------------------------------------------------------

 getting new box info from bottom of inpcrd

 NATOM  =    3592 NTYPES =       6 NBONH =    2388 MBONA  =    1205
 NTHETH =    5970 MTHETA =    1212 NPHIH =    9571 MPHIA  =    3611
 NHPARM =       0 NPARM  =       0 NNB   =   21153 NRES   =     199
 NBONA  =    1205 NTHETA =    1212 NPHIA =    3611 NUMBND =       7
 NUMANG =      11 NPTRA  =      12 NATYP =       6 NPHB   =       0
 IFBOX  =       1 NMXRS  =      28 IFCAP =       0 NEXTRA =       0
 NCOPY  =       0

     BOX TYPE: RECTILINEAR

--------------------------------------------------------------------------------
   2.  CONTROL  DATA  FOR  THE  RUN
--------------------------------------------------------------------------------

LIG

General flags:
     imin    =       0, nmropt  =       0

Nature and format of input:
     ntx     =       5, irest   =       1, ntrx    =       1

Nature and format of output:
     ntxo    =       1, ntpr    =    1500, ntrx    =       1, ntwr    =   15000
     iwrap   =       1, ntwx    =    3000, ntwv    =       0, ntwe    =    3000
     ioutfm  =       1, ntwprt  =       0, idecomp =       0, rbornstat=      0

Potential function:
     ntf     =       2, ntb     =       2, igb     =       0, nsnb    =      25
     ipol    =       0, gbsa    =       0, iesp    =       0
     dielc   =   1.00000, cut     =   8.00000, intdiel =   1.00000

Frozen or restrained atoms:
     ibelly  =       0, ntr     =       1
     restraint_wt =  10.00000

Molecular dynamics:
     nstlim  =     15000, nscm    =         0, nrespa  =         1
     t       =   0.00000, dt      =   0.00200, vlimit  =  20.00000

Berendsen (weak-coupling) temperature regulation:
     temp0   = 298.00000, tempi   =   0.00000, tautp   =   1.00000

Pressure regulation:
     ntp     =       1
     pres0   =   1.00000, comp    =  44.60000, taup    =   0.50000

SHAKE:
     ntc     =       2, jfastw  =       0
     tol     =   0.00001

Ewald parameters:
     verbose =       0, ew_type =       0, nbflag  =       1, use_pme =       1
     vdwmeth =       1, eedmeth =       1, netfrc  =       1
     Box X =   54.510   Box Y =   36.369   Box Z =   38.420
     Alpha =   90.000   Beta  =   90.000   Gamma =   90.000
     NFFT1 =   54       NFFT2 =   36       NFFT3 =   40
     Cutoff=    8.000   Tol   =0.100E-04
     Ewald Coefficient =  0.34864
     Interpolation order =    4

    LOADING THE CONSTRAINED ATOMS AS GROUPS

   5.  REFERENCE ATOM COORDINATES

  LIG
     Mask !:CYC; matches    28 atoms

--------------------------------------------------------------------------------
   3.  ATOMIC COORDINATES AND VELOCITIES
--------------------------------------------------------------------------------

LIG
 begin time read from input coords =    10.000 ps

 Number of triangulated 3-point waters found:        0

     Sum of charges from parm topology file =   0.00000000
     Forcing neutrality...

--------------------------------------------------------------------------------
   4.  RESULTS
 NSTEP =     1500   TIME(PS) =      13.000  TEMP(K) =   286.33  PRESS =    59.1
 Etot   =      4772.1622  EKtot   =      2386.3263  EPtot      =      2385.8359
 BOND   =       304.4815  ANGLE   =      1270.4965  DIHED      =       793.9387
 1-4 NB =       564.5338  1-4 EEL =      -154.7169  VDWAALS    =      -680.3743
 EELEC  =       280.2388  EHBOND  =         0.0000  RESTRAINT  =         7.2378
 EAMBER (non-restraint)  =      2378.5981
 EKCMT  =       401.0232  VIRIAL  =       299.6649  VOLUME     =     79387.8139
                                                    Density    =         0.3534
 Ewald error estimate:   0.2679E-03
 ------------------------------------------------------------------------------

      A V E R A G E S   O V E R   15000 S T E P S

 NSTEP =    15000   TIME(PS) =      40.000  TEMP(K) =   296.21  PRESS =   -53.7
 Etot   =      4945.0115  EKtot   =      2468.7027  EPtot      =      2476.3088
 BOND   =       345.9498  ANGLE   =      1437.0748  DIHED      =       755.1405
 1-4 NB =       563.5762  1-4 EEL =      -156.2938  VDWAALS    =      -758.6862
 EELEC  =       281.5504  EHBOND  =         0.0000  RESTRAINT  =         7.9971
 EAMBER (non-restraint)  =      2468.3117
 EKCMT  =       286.3858  VIRIAL  =       368.4274  VOLUME     =     76287.9479
                                                    Density    =         0.3691
 Ewald error estimate:   0.2085E-03
 ------------------------------------------------------------------------------

      R M S  F L U C T U A T I O N S

 NSTEP =    15000   TIME(PS) =      40.000  TEMP(K) =     4.00  PRESS =   132.9
 Etot   =       106.3361  EKtot   =        33.3770  EPtot      =        91.3937
 BOND   =        29.7386  ANGLE   =       124.0353  DIHED      =        18.3635
 1-4 NB =         8.9391  1-4 EEL =         1.2600  VDWAALS    =        72.6900
 EELEC  =         0.8638  EHBOND  =         0.0000  RESTRAINT  =         1.9597
 EAMBER (non-restraint)  =        89.4340
 EKCMT  =        57.4478  VIRIAL  =       178.2247  VOLUME     =      4497.7524
                                                    Density    =         0.0230
 Ewald error estimate:   0.9816E-04
 ------------------------------------------------------------------------------
