-------------------------------------------------------
          Amber 16 SANDER                              2016
          -------------------------------------------------------

  [-O]verwriting output

File Assignments:

 Here is the input file:

constant temperature
&cntrl
ntxo=1,
imin = 0, nstlim = 4000, irest = 1, ntx = 5, dt = 0.002,
ntt = 1, temp0 = 300.0, tautp = 1.0,
ntb = 1,
ntc = 2, ntf = 2,
ioutfm = 1, iwrap = 1,
ntwe = 800, ntwx = 800, ntpr = 400,
ntr = 1, restraint_wt = 10.00,
restraintmask="!:CYC",
/

--------------------------------------------------------------------------------
   1.  RESOURCE   USE:
--------------------------------------------------------------------------------

 getting new box info from bottom of inpcrd

 NATOM  =    5032 NTYPES =       6 NBONH =    3348 MBONA  =    1685
 NTHETH =    8370 MTHETA =    1692 NPHIH =   13411 MPHIA  =    5051
 NHPARM =       0 NPARM  =       0 NNB   =   29634 NRES   =     279
 NBONA  =    1685 NTHETA =    1692 NPHIA =    5051 NUMBND =       7
 NUMANG =      11 NPTRA  =      12 NATYP =       6 NPHB   =       0
 IFBOX  =       1 NMXRS  =      28 IFCAP =       0 NEXTRA =       0
 NCOPY  =       0

     BOX TYPE: RECTILINEAR

--------------------------------------------------------------------------------
   2.  CONTROL  DATA  FOR  THE  RUN
--------------------------------------------------------------------------------

LIG

General flags:
     imin    =       0, nmropt  =       0

Nature and format of input:
     ntx     =       5, irest   =       1, ntrx    =       1

Nature and format of output:
     ntxo    =       1, ntpr    =     400, ntrx    =       1, ntwr    =    4000
     iwrap   =       1, ntwx    =     800, ntwv    =       0, ntwe    =     800
     ioutfm  =       1, ntwprt  =       0, idecomp =       0, rbornstat=      0

Potential function:
     ntf     =       2, ntb     =       1, igb     =       0, nsnb    =      25
     ipol    =       0, gbsa    =       0, iesp    =       0
     dielc   =   1.00000, cut     =   8.00000, intdiel =   1.00000

Frozen or restrained atoms:
     ibelly  =       0, ntr     =       1
     restraint_wt =  10.00000

Molecular dynamics:
     nstlim  =      4000, nscm    =         0, nrespa  =         1
     t       =   0.00000, dt      =   0.00200, vlimit  =  20.00000

Berendsen (weak-coupling) temperature regulation:
     temp0   = 300.00000, tempi   =   0.00000, tautp   =   1.00000

SHAKE:
     ntc     =       2, jfastw  =       0
     tol     =   0.00001

Ewald parameters:
     verbose =       0, ew_type =       0, nbflag  =       1, use_pme =       1
     vdwmeth =       1, eedmeth =       1, netfrc  =       1
     Box X =   54.510   Box Y =   50.917   Box Z =   38.420
     Alpha =   90.000   Beta  =   90.000   Gamma =   90.000
     NFFT1 =   54       NFFT2 =   50       NFFT3 =   40
     Cutoff=    8.000   Tol   =0.100E-04
     Ewald Coefficient =  0.34864
     Interpolation order =    4

    LOADING THE CONSTRAINED ATOMS AS GROUPS

   5.  REFERENCE ATOM COORDINATES

  LIG
     Mask !:CYC; matches    28 atoms

--------------------------------------------------------------------------------
   3.  ATOMIC COORDINATES AND VELOCITIES
--------------------------------------------------------------------------------

LIG
 begin time read from input coords =     2.000 ps

 Number of triangulated 3-point waters found:        0

     Sum of charges from parm topology file =   0.00100000
     Forcing neutrality...

--------------------------------------------------------------------------------
   4.  RESULTS
 NSTEP =      400   TIME(PS) =       2.800  TEMP(K) =   214.05  PRESS =     0.0
 Etot   =      4003.6536  EKtot   =      2498.5802  EPtot      =      1505.0734
 BOND   =       135.0885  ANGLE   =       495.8359  DIHED      =       940.9517
 1-4 NB =       713.2314  1-4 EEL =      -223.4730  VDWAALS    =      -951.8435
 EELEC  =       387.3196  EHBOND  =         0.0000  RESTRAINT  =         7.9627
 EAMBER (non-restraint)  =      1497.1106
 Ewald error estimate:   0.1422E-03
 ------------------------------------------------------------------------------

      A V E R A G E S   O V E R    4000 S T E P S

 NSTEP =     4000   TIME(PS) =      10.000  TEMP(K) =   263.40  PRESS =     0.0
 Etot   =      5393.4095  EKtot   =      3074.5655  EPtot      =      2318.8440
 BOND   =       262.6868  ANGLE   =      1032.7954  DIHED      =      1035.8214
 1-4 NB =       758.7652  1-4 EEL =      -220.4614  VDWAALS    =      -942.8648
 EELEC  =       385.5301  EHBOND  =         0.0000  RESTRAINT  =         6.5712
 EAMBER (non-restraint)  =      2312.2728
 Ewald error estimate:   0.1333E-03
 ------------------------------------------------------------------------------

      R M S  F L U C T U A T I O N S

 NSTEP =     4000   TIME(PS) =      10.000  TEMP(K) =    30.75  PRESS =     0.0
 Etot   =       863.3529  EKtot   =       358.9081  EPtot      =       514.9153
 BOND   =        87.4250  ANGLE   =       352.5645  DIHED      =        50.8867
 1-4 NB =        28.0579  1-4 EEL =         1.7901  VDWAALS    =        21.4922
 EELEC  =         0.9796  EHBOND  =         0.0000  RESTRAINT  =         1.8871
 EAMBER (non-restraint)  =       513.0282
 Ewald error estimate:   0.7937E-04
 ------------------------------------------------------------------------------
